
     RDKit          3D

 71 75  0  0  0  0  0  0  0  0999 V2000
   12.4926   -0.6395    1.1326 C   0  0  0  0  0  0  0  0  0  0  0  0
   11.3756    0.2852    0.8792 C   0  0  0  0  0  0  0  0  0  0  0  0
   11.3874    1.5888    0.6980 N   0  0  0  0  0  0  0  0  0  0  0  0
   10.0747    1.9607    0.4926 N   0  0  0  0  0  0  0  0  0  0  0  0
    9.3524    0.8595    0.5741 C   0  0  0  0  0  0  0  0  0  0  0  0
    7.9146    0.6689    0.4410 C   0  0  0  0  0  0  0  0  0  0  0  0
    7.1147    1.7252   -0.0040 C   0  0  0  0  0  0  0  0  0  0  0  0
    5.7314    1.5681   -0.1311 C   0  0  0  0  0  0  0  0  0  0  0  0
    5.0984    0.3542    0.1935 C   0  0  0  0  0  0  0  0  0  0  0  0
    3.6342    0.2570    0.0569 C   0  0  0  0  0  0  0  0  0  0  0  0
    2.7923    1.0397    0.8666 C   0  0  0  0  0  0  0  0  0  0  0  0
    1.4019    0.9629    0.7459 C   0  0  0  0  0  0  0  0  0  0  0  0
    0.8326    0.0969   -0.1933 C   0  0  0  0  0  0  0  0  0  0  0  0
   -0.6430   -0.0103   -0.3404 C   0  0  0  0  0  0  0  0  0  0  0  0
   -1.1374   -1.1251   -0.4338 O   0  0  0  0  0  0  0  0  0  0  0  0
   -1.2930    1.2097   -0.3770 N   0  0  0  0  0  0  0  0  0  0  0  0
   -2.6783    1.4454   -0.5029 C   0  0  0  0  0  0  0  0  0  0  0  0
   -3.0833    2.7773   -0.6204 C   0  0  0  0  0  0  0  0  0  0  0  0
   -4.4299    3.0873   -0.7795 C   0  0  0  0  0  0  0  0  0  0  0  0
   -5.3745    2.0606   -0.8256 C   0  0  0  0  0  0  0  0  0  0  0  0
   -6.6916    2.3936   -1.0457 O   0  0  0  0  0  0  0  0  0  0  0  0
   -7.1829    2.7517   -2.5645 S   0  0  0  0  0  0  0  0  0  0  0  0
   -7.3090    1.1073   -3.2338 C   0  0  0  0  0  0  0  0  0  0  0  0
   -8.5253    3.2962   -2.4793 O   0  0  0  0  0  0  0  0  0  0  0  0
   -6.1454    3.4683   -3.2808 O   0  0  0  0  0  0  0  0  0  0  0  0
   -5.0206    0.7072   -0.6437 C   0  0  0  0  0  0  0  0  0  0  0  0
   -6.0067   -0.2892   -0.6469 N   0  0  0  0  0  0  0  0  0  0  0  0
   -5.6586   -1.6898   -0.9816 C   0  0  0  0  0  0  0  0  0  0  0  0
   -5.3153   -2.5452    0.2623 C   0  0  0  0  0  0  0  0  0  0  0  0
   -6.3516   -2.4713    1.3160 N   0  0  0  0  0  0  0  0  0  0  0  0
   -5.9455   -3.2420    2.4894 C   0  0  0  0  0  0  0  0  0  0  0  0
   -6.5760   -1.0544    1.6733 C   0  0  0  0  0  0  0  0  0  0  0  0
   -7.0014   -0.2048    0.4542 C   0  0  0  0  0  0  0  0  0  0  0  0
   -3.6476    0.4311   -0.5099 C   0  0  0  0  0  0  0  0  0  0  0  0
    1.6530   -0.6984   -0.9972 C   0  0  0  0  0  0  0  0  0  0  0  0
    3.0434   -0.6069   -0.8801 C   0  0  0  0  0  0  0  0  0  0  0  0
    5.8970   -0.7150    0.6577 C   0  0  0  0  0  0  0  0  0  0  0  0
    5.3053   -2.0491    1.0379 C   0  0  0  0  0  0  0  0  0  0  0  0
    7.2935   -0.5480    0.7599 C   0  0  0  0  0  0  0  0  0  0  0  0
   10.1191   -0.2533    0.8179 O   0  0  0  0  0  0  0  0  0  0  0  0
   12.3231   -1.2074    2.0523 H   0  0  0  0  0  0  0  0  0  0  0  0
   13.4325   -0.0899    1.2396 H   0  0  0  0  0  0  0  0  0  0  0  0
   12.5990   -1.3452    0.3033 H   0  0  0  0  0  0  0  0  0  0  0  0
    7.5643    2.6845   -0.2595 H   0  0  0  0  0  0  0  0  0  0  0  0
    5.1425    2.4104   -0.4936 H   0  0  0  0  0  0  0  0  0  0  0  0
    3.2236    1.7067    1.6123 H   0  0  0  0  0  0  0  0  0  0  0  0
    0.7793    1.5580    1.4082 H   0  0  0  0  0  0  0  0  0  0  0  0
   -0.7050    2.0320   -0.4096 H   0  0  0  0  0  0  0  0  0  0  0  0
   -2.3611    3.5893   -0.6112 H   0  0  0  0  0  0  0  0  0  0  0  0
   -4.7381    4.1227   -0.8995 H   0  0  0  0  0  0  0  0  0  0  0  0
   -7.9731    0.5146   -2.6027 H   0  0  0  0  0  0  0  0  0  0  0  0
   -7.7366    1.1893   -4.2378 H   0  0  0  0  0  0  0  0  0  0  0  0
   -6.3143    0.6636   -3.3049 H   0  0  0  0  0  0  0  0  0  0  0  0
   -4.8490   -1.7385   -1.7186 H   0  0  0  0  0  0  0  0  0  0  0  0
   -6.5342   -2.1315   -1.4752 H   0  0  0  0  0  0  0  0  0  0  0  0
   -4.3458   -2.2348    0.6695 H   0  0  0  0  0  0  0  0  0  0  0  0
   -5.2073   -3.5861   -0.0649 H   0  0  0  0  0  0  0  0  0  0  0  0
   -5.8195   -4.2987    2.2273 H   0  0  0  0  0  0  0  0  0  0  0  0
   -5.0063   -2.8798    2.9217 H   0  0  0  0  0  0  0  0  0  0  0  0
   -6.7169   -3.1986    3.2649 H   0  0  0  0  0  0  0  0  0  0  0  0
   -7.3733   -0.9920    2.4236 H   0  0  0  0  0  0  0  0  0  0  0  0
   -5.6704   -0.6225    2.1192 H   0  0  0  0  0  0  0  0  0  0  0  0
   -7.9612   -0.5764    0.0714 H   0  0  0  0  0  0  0  0  0  0  0  0
   -7.1820    0.8225    0.7873 H   0  0  0  0  0  0  0  0  0  0  0  0
   -3.3266   -0.5950   -0.3940 H   0  0  0  0  0  0  0  0  0  0  0  0
    1.2139   -1.3839   -1.7185 H   0  0  0  0  0  0  0  0  0  0  0  0
    3.6693   -1.2199   -1.5274 H   0  0  0  0  0  0  0  0  0  0  0  0
    5.0467   -2.6192    0.1404 H   0  0  0  0  0  0  0  0  0  0  0  0
    4.4152   -1.9169    1.6615 H   0  0  0  0  0  0  0  0  0  0  0  0
    6.0139   -2.6436    1.6241 H   0  0  0  0  0  0  0  0  0  0  0  0
    7.9002   -1.3807    1.1131 H   0  0  0  0  0  0  0  0  0  0  0  0
  1  2  1  0
  2  3  2  0
  3  4  1  0
  4  5  2  0
  5  6  1  0
  6  7  1  0
  7  8  2  0
  8  9  1  0
  9 10  1  0
 10 11  1  0
 11 12  2  0
 12 13  1  0
 13 14  1  0
 14 15  2  0
 14 16  1  0
 16 17  1  0
 17 18  1  0
 18 19  2  0
 19 20  1  0
 20 21  1  0
 21 22  1  0
 22 23  1  0
 22 24  2  0
 22 25  2  0
 20 26  2  0
 26 27  1  0
 27 28  1  0
 28 29  1  0
 29 30  1  0
 30 31  1  0
 30 32  1  0
 32 33  1  0
 26 34  1  0
 13 35  2  0
 35 36  1  0
  9 37  2  0
 37 38  1  0
 37 39  1  0
  5 40  1  0
 40  2  1  0
 39  6  2  0
 36 10  2  0
 34 17  2  0
 33 27  1  0
  1 41  1  0
  1 42  1  0
  1 43  1  0
  7 44  1  0
  8 45  1  0
 11 46  1  0
 12 47  1  0
 16 48  1  0
 18 49  1  0
 19 50  1  0
 23 51  1  0
 23 52  1  0
 23 53  1  0
 28 54  1  0
 28 55  1  0
 29 56  1  0
 29 57  1  0
 31 58  1  0
 31 59  1  0
 31 60  1  0
 32 61  1  0
 32 62  1  0
 33 63  1  0
 33 64  1  0
 34 65  1  0
 35 66  1  0
 36 67  1  0
 38 68  1  0
 38 69  1  0
 38 70  1  0
 39 71  1  0
M  END
$$$$
