
     RDKit          3D

 41 43  0  0  0  0  0  0  0  0999 V2000
   -3.7142    1.0260    3.1843 C   0  0  0  0  0  0  0  0  0  0  0  0
   -3.6354    0.8352    1.6985 C   0  0  0  0  0  0  0  0  0  0  0  0
   -4.7944    0.8811    0.9167 C   0  0  0  0  0  0  0  0  0  0  0  0
   -4.7296    0.6792   -0.4669 C   0  0  0  0  0  0  0  0  0  0  0  0
   -5.9789    0.7047   -1.2981 C   0  0  0  0  0  0  0  0  0  0  0  0
   -3.4924    0.3928   -1.0642 C   0  0  0  0  0  0  0  0  0  0  0  0
   -2.3279    0.3280   -0.2979 C   0  0  0  0  0  0  0  0  0  0  0  0
   -1.0559    0.0481   -0.8283 N   0  0  0  0  0  0  0  0  0  0  0  0
   -0.7117   -0.2159   -2.1405 C   0  0  0  0  0  0  0  0  0  0  0  0
   -1.4541   -0.2643   -3.1129 O   0  0  0  0  0  0  0  0  0  0  0  0
    0.7482   -0.4638   -2.3173 C   0  0  0  0  0  0  0  0  0  0  0  0
    1.2573   -0.7873   -3.5636 C   0  0  0  0  0  0  0  0  0  0  0  0
    2.5774   -1.0229   -3.7584 N   0  0  0  0  0  0  0  0  0  0  0  0
    3.3549   -0.9194   -2.6498 C   0  0  0  0  0  0  0  0  0  0  0  0
    2.8585   -0.5990   -1.3833 C   0  0  0  0  0  0  0  0  0  0  0  0
    3.7068   -0.4898   -0.1822 C   0  0  0  0  0  0  0  0  0  0  0  0
    3.4181    0.4626    0.8141 C   0  0  0  0  0  0  0  0  0  0  0  0
    4.2096    0.5838    1.9623 C   0  0  0  0  0  0  0  0  0  0  0  0
    5.3114   -0.2531    2.1438 C   0  0  0  0  0  0  0  0  0  0  0  0
    6.1238   -0.1342    3.3190 C   0  0  0  0  0  0  0  0  0  0  0  0
    6.7826   -0.0389    4.2696 N   0  0  0  0  0  0  0  0  0  0  0  0
    5.6138   -1.2100    1.1728 C   0  0  0  0  0  0  0  0  0  0  0  0
    4.8192   -1.3265    0.0247 C   0  0  0  0  0  0  0  0  0  0  0  0
    1.5320   -0.3589   -1.2017 N   0  0  0  0  0  0  0  0  0  0  0  0
   -2.4092    0.5483    1.0831 C   0  0  0  0  0  0  0  0  0  0  0  0
   -4.5337    1.7024    3.4487 H   0  0  0  0  0  0  0  0  0  0  0  0
   -2.7905    1.4696    3.5706 H   0  0  0  0  0  0  0  0  0  0  0  0
   -3.8774    0.0626    3.6769 H   0  0  0  0  0  0  0  0  0  0  0  0
   -5.7560    1.0771    1.3874 H   0  0  0  0  0  0  0  0  0  0  0  0
   -5.7692    1.0775   -2.3062 H   0  0  0  0  0  0  0  0  0  0  0  0
   -6.3993   -0.3029   -1.3724 H   0  0  0  0  0  0  0  0  0  0  0  0
   -6.7294    1.3690   -0.8569 H   0  0  0  0  0  0  0  0  0  0  0  0
   -3.4659    0.2204   -2.1359 H   0  0  0  0  0  0  0  0  0  0  0  0
   -0.2736    0.0271   -0.1781 H   0  0  0  0  0  0  0  0  0  0  0  0
    0.6235   -0.8673   -4.4407 H   0  0  0  0  0  0  0  0  0  0  0  0
    4.4123   -1.0925   -2.8234 H   0  0  0  0  0  0  0  0  0  0  0  0
    2.5653    1.1309    0.6960 H   0  0  0  0  0  0  0  0  0  0  0  0
    3.9559    1.3352    2.7083 H   0  0  0  0  0  0  0  0  0  0  0  0
    6.4649   -1.8770    1.3027 H   0  0  0  0  0  0  0  0  0  0  0  0
    5.0758   -2.1003   -0.6973 H   0  0  0  0  0  0  0  0  0  0  0  0
   -1.5129    0.4930    1.6964 H   0  0  0  0  0  0  0  0  0  0  0  0
  1  2  1  0
  2  3  1  0
  3  4  2  0
  4  5  1  0
  4  6  1  0
  6  7  2  0
  7  8  1  0
  8  9  1  0
  9 10  2  0
  9 11  1  0
 11 12  1  0
 12 13  2  0
 13 14  1  0
 14 15  2  0
 15 16  1  0
 16 17  1  0
 17 18  2  0
 18 19  1  0
 19 20  1  0
 20 21  3  0
 19 22  2  0
 22 23  1  0
 15 24  1  0
  7 25  1  0
 25  2  2  0
 24 11  2  0
 23 16  2  0
  1 26  1  0
  1 27  1  0
  1 28  1  0
  3 29  1  0
  5 30  1  0
  5 31  1  0
  5 32  1  0
  6 33  1  0
  8 34  1  0
 12 35  1  0
 14 36  1  0
 17 37  1  0
 18 38  1  0
 22 39  1  0
 23 40  1  0
 25 41  1  0
M  END
$$$$
