
     RDKit          3D

 41 45  0  0  0  0  0  0  0  0999 V2000
   -2.2731   -3.1144    2.3516 C   0  0  0  0  0  0  0  0  0  0  0  0
   -2.2380   -1.6670    2.2761 N   0  0  0  0  0  0  0  0  0  0  0  0
   -2.7090   -0.8895    3.3288 C   0  0  0  0  0  0  0  0  0  0  0  0
   -3.1751   -1.3493    4.3712 O   0  0  0  0  0  0  0  0  0  0  0  0
   -2.6405    0.4836    3.1772 N   0  0  0  0  0  0  0  0  0  0  0  0
   -2.1545    1.1818    2.0951 C   0  0  0  0  0  0  0  0  0  0  0  0
   -2.1367    2.4066    2.0593 O   0  0  0  0  0  0  0  0  0  0  0  0
   -1.6915    0.3266    1.0591 C   0  0  0  0  0  0  0  0  0  0  0  0
   -1.7362   -1.0348    1.1582 C   0  0  0  0  0  0  0  0  0  0  0  0
   -1.2374   -1.6441    0.0515 N   0  0  0  0  0  0  0  0  0  0  0  0
   -0.8738   -0.6481   -0.7332 C   0  0  0  0  0  0  0  0  0  0  0  0
   -0.1381   -0.8736   -2.2860 S   0  0  0  0  0  0  0  0  0  0  0  0
    1.4901   -0.7073   -1.7400 C   0  0  0  0  0  0  0  0  0  0  0  0
    2.0281    0.3362   -1.1537 N   0  0  0  0  0  0  0  0  0  0  0  0
    3.3333   -0.0322   -0.9251 C   0  0  0  0  0  0  0  0  0  0  0  0
    4.3745    0.6876   -0.3216 C   0  0  0  0  0  0  0  0  0  0  0  0
    5.6312    0.0799   -0.2045 C   0  0  0  0  0  0  0  0  0  0  0  0
    5.8472   -1.2170   -0.6780 C   0  0  0  0  0  0  0  0  0  0  0  0
    4.8214   -1.9521   -1.2839 C   0  0  0  0  0  0  0  0  0  0  0  0
    3.5797   -1.3229   -1.3887 C   0  0  0  0  0  0  0  0  0  0  0  0
    2.3772   -1.7280   -1.9092 N   0  0  0  0  0  0  0  0  0  0  0  0
   -1.1475    0.5825   -0.1763 N   0  0  0  0  0  0  0  0  0  0  0  0
   -0.9049    1.9001   -0.7408 C   0  0  0  0  0  0  0  0  0  0  0  0
   -2.1362    2.4297   -1.3640 C   0  0  0  0  0  0  0  0  0  0  0  0
   -3.1218    3.3050   -0.9687 C   0  0  0  0  0  0  0  0  0  0  0  0
   -4.0525    3.4439   -1.9669 N   0  0  0  0  0  0  0  0  0  0  0  0
   -3.6016    2.6608   -2.9200 C   0  0  0  0  0  0  0  0  0  0  0  0
   -2.4402    2.0113   -2.6327 O   0  0  0  0  0  0  0  0  0  0  0  0
   -2.8845   -3.5006    1.5300 H   0  0  0  0  0  0  0  0  0  0  0  0
   -2.6988   -3.4594    3.2976 H   0  0  0  0  0  0  0  0  0  0  0  0
   -1.2531   -3.5017    2.2638 H   0  0  0  0  0  0  0  0  0  0  0  0
   -2.9874    1.0287    3.9507 H   0  0  0  0  0  0  0  0  0  0  0  0
    4.2028    1.6934    0.0450 H   0  0  0  0  0  0  0  0  0  0  0  0
    6.4478    0.6264    0.2619 H   0  0  0  0  0  0  0  0  0  0  0  0
    6.8336   -1.6653   -0.5733 H   0  0  0  0  0  0  0  0  0  0  0  0
    4.9913   -2.9588   -1.6500 H   0  0  0  0  0  0  0  0  0  0  0  0
    2.1680   -2.6222   -2.3267 H   0  0  0  0  0  0  0  0  0  0  0  0
   -0.5489    2.5520    0.0632 H   0  0  0  0  0  0  0  0  0  0  0  0
   -0.0996    1.8458   -1.4761 H   0  0  0  0  0  0  0  0  0  0  0  0
   -3.2099    3.8335   -0.0283 H   0  0  0  0  0  0  0  0  0  0  0  0
   -4.0349    2.4727   -3.8922 H   0  0  0  0  0  0  0  0  0  0  0  0
  1  2  1  0
  2  3  1  0
  3  4  2  0
  3  5  1  0
  5  6  1  0
  6  7  2  0
  6  8  1  0
  8  9  2  0
  9 10  1  0
 10 11  2  0
 11 12  1  0
 12 13  1  0
 13 14  2  0
 14 15  1  0
 15 16  2  0
 16 17  1  0
 17 18  2  0
 18 19  1  0
 19 20  2  0
 20 21  1  0
 11 22  1  0
 22 23  1  0
 23 24  1  0
 24 25  2  0
 25 26  1  0
 26 27  2  0
 27 28  1  0
  9  2  1  0
 21 13  1  0
 28 24  1  0
 22  8  1  0
 20 15  1  0
  1 29  1  0
  1 30  1  0
  1 31  1  0
  5 32  1  0
 16 33  1  0
 17 34  1  0
 18 35  1  0
 19 36  1  0
 21 37  1  0
 23 38  1  0
 23 39  1  0
 25 40  1  0
 27 41  1  0
M  END
$$$$
