
     RDKit          3D

 44 46  0  0  0  0  0  0  0  0999 V2000
   -0.5138   -2.0600    0.8951 O   0  0  0  0  0  0  0  0  0  0  0  0
   -0.2774   -0.8581    0.8533 C   0  0  0  0  0  0  0  0  0  0  0  0
    0.9977   -0.3341    0.8687 N   0  0  0  0  0  0  0  0  0  0  0  0
    2.1433   -1.2180    0.8140 C   0  0  0  0  0  0  0  0  0  0  0  0
    3.3975   -0.4964    1.2080 C   0  0  0  0  0  0  0  0  0  0  0  0
    3.7471   -0.3747    2.5587 C   0  0  0  0  0  0  0  0  0  0  0  0
    4.9024    0.3110    2.9173 C   0  0  0  0  0  0  0  0  0  0  0  0
    5.6688    0.8678    1.9096 C   0  0  0  0  0  0  0  0  0  0  0  0
    5.3563    0.7885    0.5985 N   0  0  0  0  0  0  0  0  0  0  0  0
    4.2387    0.1043    0.2748 C   0  0  0  0  0  0  0  0  0  0  0  0
    3.8760    0.0313   -1.0531 O   0  0  0  0  0  0  0  0  0  0  0  0
    4.8962    0.4625   -1.9676 C   0  0  0  0  0  0  0  0  0  0  0  0
    5.9476   -0.6020   -2.2496 C   0  0  0  0  0  0  0  0  0  0  0  0
    6.7008   -0.9247   -1.1800 F   0  0  0  0  0  0  0  0  0  0  0  0
    6.7928   -0.1747   -3.2211 F   0  0  0  0  0  0  0  0  0  0  0  0
    5.3724   -1.7415   -2.7043 F   0  0  0  0  0  0  0  0  0  0  0  0
   -1.3944    0.1078    0.7468 C   0  0  0  0  0  0  0  0  0  0  0  0
   -1.2987    1.4084    1.2180 C   0  0  0  0  0  0  0  0  0  0  0  0
   -2.3014    2.3133    1.1342 N   0  0  0  0  0  0  0  0  0  0  0  0
   -3.4599    1.8849    0.5729 C   0  0  0  0  0  0  0  0  0  0  0  0
   -3.6819    0.5965    0.0801 C   0  0  0  0  0  0  0  0  0  0  0  0
   -4.9690    0.2001   -0.5114 C   0  0  0  0  0  0  0  0  0  0  0  0
   -5.5892    0.9878   -1.4978 C   0  0  0  0  0  0  0  0  0  0  0  0
   -6.8134    0.6103   -2.0600 C   0  0  0  0  0  0  0  0  0  0  0  0
   -7.4348   -0.5626   -1.6420 C   0  0  0  0  0  0  0  0  0  0  0  0
   -8.9400   -1.0271   -2.3320 Cl  0  0  0  0  0  0  0  0  0  0  0  0
   -6.8424   -1.3607   -0.6684 C   0  0  0  0  0  0  0  0  0  0  0  0
   -5.6179   -0.9811   -0.1087 C   0  0  0  0  0  0  0  0  0  0  0  0
   -2.6084   -0.2997    0.1835 C   0  0  0  0  0  0  0  0  0  0  0  0
    1.1417    0.6071    0.5273 H   0  0  0  0  0  0  0  0  0  0  0  0
    1.9748   -2.0730    1.4804 H   0  0  0  0  0  0  0  0  0  0  0  0
    2.2097   -1.6284   -0.2000 H   0  0  0  0  0  0  0  0  0  0  0  0
    3.1205   -0.8161    3.3310 H   0  0  0  0  0  0  0  0  0  0  0  0
    5.1963    0.4090    3.9566 H   0  0  0  0  0  0  0  0  0  0  0  0
    6.5813    1.4120    2.1370 H   0  0  0  0  0  0  0  0  0  0  0  0
    5.3484    1.4166   -1.6712 H   0  0  0  0  0  0  0  0  0  0  0  0
    4.3756    0.6718   -2.9095 H   0  0  0  0  0  0  0  0  0  0  0  0
   -0.4036    1.7796    1.7081 H   0  0  0  0  0  0  0  0  0  0  0  0
   -4.2440    2.6389    0.5439 H   0  0  0  0  0  0  0  0  0  0  0  0
   -5.1157    1.9020   -1.8521 H   0  0  0  0  0  0  0  0  0  0  0  0
   -7.2710    1.2338   -2.8236 H   0  0  0  0  0  0  0  0  0  0  0  0
   -7.3246   -2.2770   -0.3378 H   0  0  0  0  0  0  0  0  0  0  0  0
   -5.1777   -1.6163    0.6588 H   0  0  0  0  0  0  0  0  0  0  0  0
   -2.7069   -1.3192   -0.1864 H   0  0  0  0  0  0  0  0  0  0  0  0
  1  2  2  0
  2  3  1  0
  3  4  1  0
  4  5  1  0
  5  6  1  0
  6  7  2  0
  7  8  1  0
  8  9  2  0
  9 10  1  0
 10 11  1  0
 11 12  1  0
 12 13  1  0
 13 14  1  0
 13 15  1  0
 13 16  1  0
  2 17  1  0
 17 18  1  0
 18 19  2  0
 19 20  1  0
 20 21  2  0
 21 22  1  0
 22 23  1  0
 23 24  2  0
 24 25  1  0
 25 26  1  0
 25 27  2  0
 27 28  1  0
 21 29  1  0
 10  5  2  0
 29 17  2  0
 28 22  2  0
  3 30  1  0
  4 31  1  0
  4 32  1  0
  6 33  1  0
  7 34  1  0
  8 35  1  0
 12 36  1  0
 12 37  1  0
 18 38  1  0
 20 39  1  0
 23 40  1  0
 24 41  1  0
 27 42  1  0
 28 43  1  0
 29 44  1  0
M  END
$$$$
