
     RDKit          3D

 48 52  0  0  0  0  0  0  0  0999 V2000
    7.5096    0.2076   -1.0198 C   0  0  0  0  0  0  0  0  0  0  0  0
    6.5354    0.7680   -1.8021 C   0  0  0  0  0  0  0  0  0  0  0  0
    5.2179    0.5734   -1.6043 N   0  0  0  0  0  0  0  0  0  0  0  0
    4.8426   -0.2143   -0.5798 C   0  0  0  0  0  0  0  0  0  0  0  0
    3.4820   -0.4573   -0.3758 N   0  0  0  0  0  0  0  0  0  0  0  0
    3.1527   -0.8573    0.9991 C   0  0  0  0  0  0  0  0  0  0  0  0
    1.6506   -1.1980    1.1263 C   0  0  0  0  0  0  0  0  0  0  0  0
    0.7703   -0.1023    0.6597 N   0  0  0  0  0  0  0  0  0  0  0  0
   -0.6485   -0.5001    0.7813 C   0  0  0  0  0  0  0  0  0  0  0  0
   -1.6481    0.6359    0.6942 C   0  0  0  0  0  0  0  0  0  0  0  0
   -1.2512    1.9611    0.9904 C   0  0  0  0  0  0  0  0  0  0  0  0
   -2.1355    3.0473    0.9024 C   0  0  0  0  0  0  0  0  0  0  0  0
   -3.4574    2.8472    0.5289 C   0  0  0  0  0  0  0  0  0  0  0  0
   -3.8698    1.5478    0.2792 C   0  0  0  0  0  0  0  0  0  0  0  0
   -2.9966    0.4303    0.3806 C   0  0  0  0  0  0  0  0  0  0  0  0
   -3.7894   -0.7712    0.1139 C   0  0  0  0  0  0  0  0  0  0  0  0
   -3.4806   -2.1230    0.1526 C   0  0  0  0  0  0  0  0  0  0  0  0
   -4.4752   -3.0631   -0.1510 C   0  0  0  0  0  0  0  0  0  0  0  0
   -5.7760   -2.6577   -0.4789 C   0  0  0  0  0  0  0  0  0  0  0  0
   -6.1076   -1.3055   -0.4981 C   0  0  0  0  0  0  0  0  0  0  0  0
   -5.1142   -0.3846   -0.1960 C   0  0  0  0  0  0  0  0  0  0  0  0
   -5.2628    1.1153   -0.1206 C   0  0  0  0  0  0  0  0  0  0  0  0
    1.1187    0.2010   -0.7517 C   0  0  0  0  0  0  0  0  0  0  0  0
    2.6054    0.5845   -0.9300 C   0  0  0  0  0  0  0  0  0  0  0  0
    5.7389   -0.8044    0.2325 N   0  0  0  0  0  0  0  0  0  0  0  0
    7.0460   -0.5824   -0.0018 C   0  0  0  0  0  0  0  0  0  0  0  0
    8.5623    0.3733   -1.1942 H   0  0  0  0  0  0  0  0  0  0  0  0
    6.7858    1.4101   -2.6409 H   0  0  0  0  0  0  0  0  0  0  0  0
    3.7149   -1.7518    1.2952 H   0  0  0  0  0  0  0  0  0  0  0  0
    3.4009   -0.0486    1.6998 H   0  0  0  0  0  0  0  0  0  0  0  0
    1.4420   -1.4108    2.1818 H   0  0  0  0  0  0  0  0  0  0  0  0
    1.4439   -2.1166    0.5601 H   0  0  0  0  0  0  0  0  0  0  0  0
   -0.8125   -0.9723    1.7587 H   0  0  0  0  0  0  0  0  0  0  0  0
   -0.8591   -1.2420    0.0051 H   0  0  0  0  0  0  0  0  0  0  0  0
   -0.2230    2.1625    1.2894 H   0  0  0  0  0  0  0  0  0  0  0  0
   -1.7780    4.0493    1.1257 H   0  0  0  0  0  0  0  0  0  0  0  0
   -4.1455    3.6819    0.4507 H   0  0  0  0  0  0  0  0  0  0  0  0
   -2.4986   -2.4858    0.4252 H   0  0  0  0  0  0  0  0  0  0  0  0
   -4.2358   -4.1239   -0.1256 H   0  0  0  0  0  0  0  0  0  0  0  0
   -6.5317   -3.4048   -0.7087 H   0  0  0  0  0  0  0  0  0  0  0  0
   -7.1168   -0.9853   -0.7354 H   0  0  0  0  0  0  0  0  0  0  0  0
   -5.5319    1.5289   -1.0969 H   0  0  0  0  0  0  0  0  0  0  0  0
   -5.9896    1.3943    0.6481 H   0  0  0  0  0  0  0  0  0  0  0  0
    0.5119    1.0344   -1.1230 H   0  0  0  0  0  0  0  0  0  0  0  0
    0.9018   -0.6669   -1.3897 H   0  0  0  0  0  0  0  0  0  0  0  0
    2.7803    0.7157   -2.0052 H   0  0  0  0  0  0  0  0  0  0  0  0
    2.7938    1.5450   -0.4316 H   0  0  0  0  0  0  0  0  0  0  0  0
    7.7280   -1.0808    0.6801 H   0  0  0  0  0  0  0  0  0  0  0  0
  1  2  2  0
  2  3  1  0
  3  4  2  0
  4  5  1  0
  5  6  1  0
  6  7  1  0
  7  8  1  0
  8  9  1  0
  9 10  1  0
 10 11  2  0
 11 12  1  0
 12 13  2  0
 13 14  1  0
 14 15  2  0
 15 16  1  0
 16 17  2  0
 17 18  1  0
 18 19  2  0
 19 20  1  0
 20 21  2  0
 21 22  1  0
  8 23  1  0
 23 24  1  0
  4 25  1  0
 25 26  2  0
 26  1  1  0
 24  5  1  0
 15 10  1  0
 21 16  1  0
 22 14  1  0
  1 27  1  0
  2 28  1  0
  6 29  1  0
  6 30  1  0
  7 31  1  0
  7 32  1  0
  9 33  1  0
  9 34  1  0
 11 35  1  0
 12 36  1  0
 13 37  1  0
 17 38  1  0
 18 39  1  0
 19 40  1  0
 20 41  1  0
 22 42  1  0
 22 43  1  0
 23 44  1  0
 23 45  1  0
 24 46  1  0
 24 47  1  0
 26 48  1  0
M  END
$$$$
