
     RDKit          3D

 55 58  0  0  0  0  0  0  0  0999 V2000
   -8.7969   -0.9299    0.7798 C   0  0  0  0  0  0  0  0  0  0  0  0
   -8.1177   -0.9279   -0.8674 S   0  0  0  0  0  0  0  0  0  0  0  0
   -8.5755    0.2392   -1.5857 O   0  0  0  0  0  0  0  0  0  0  0  0
   -8.3029   -2.2548   -1.4189 O   0  0  0  0  0  0  0  0  0  0  0  0
   -6.4863   -0.7988   -0.6063 N   0  0  0  0  0  0  0  0  0  0  0  0
   -5.8463    0.3110   -0.0459 C   0  0  0  0  0  0  0  0  0  0  0  0
   -6.4582    1.2275    0.4803 O   0  0  0  0  0  0  0  0  0  0  0  0
   -4.3596    0.3118   -0.0770 C   0  0  0  0  0  0  0  0  0  0  0  0
   -3.6826    1.4397    0.4099 C   0  0  0  0  0  0  0  0  0  0  0  0
   -2.2750    1.5229    0.4107 C   0  0  0  0  0  0  0  0  0  0  0  0
   -1.5853    2.7685    0.9341 C   0  0  0  0  0  0  0  0  0  0  0  0
   -1.9852    3.3718    2.2623 C   0  0  0  0  0  0  0  0  0  0  0  0
   -0.6670    2.6734    2.1325 C   0  0  0  0  0  0  0  0  0  0  0  0
   -1.5475    0.4339   -0.1235 C   0  0  0  0  0  0  0  0  0  0  0  0
   -0.1857    0.5924   -0.1354 O   0  0  0  0  0  0  0  0  0  0  0  0
    0.6190   -0.5018   -0.5733 C   0  0  0  0  0  0  0  0  0  0  0  0
    2.0706   -0.0810   -0.4343 C   0  0  0  0  0  0  0  0  0  0  0  0
    3.1245   -1.1878   -0.6307 C   0  0  0  0  0  0  0  0  0  0  0  0
    3.8254   -0.7294    0.5888 N   0  0  0  0  0  0  0  0  0  0  0  0
    4.9242    0.1959    0.2608 C   0  0  0  0  0  0  0  0  0  0  0  0
    6.1593   -0.5238   -0.2415 C   0  0  0  0  0  0  0  0  0  0  0  0
    6.7142   -0.2046   -1.4897 C   0  0  0  0  0  0  0  0  0  0  0  0
    7.8630   -0.8568   -1.9424 C   0  0  0  0  0  0  0  0  0  0  0  0
    8.4707   -1.8312   -1.1526 C   0  0  0  0  0  0  0  0  0  0  0  0
    7.9310   -2.1555    0.0908 C   0  0  0  0  0  0  0  0  0  0  0  0
    6.7830   -1.5045    0.5449 C   0  0  0  0  0  0  0  0  0  0  0  0
    2.6222    0.0258    1.0012 C   0  0  0  0  0  0  0  0  0  0  0  0
   -2.2149   -0.6935   -0.6069 C   0  0  0  0  0  0  0  0  0  0  0  0
   -3.6070   -0.7460   -0.5775 C   0  0  0  0  0  0  0  0  0  0  0  0
   -4.2002   -1.8531   -1.0499 F   0  0  0  0  0  0  0  0  0  0  0  0
   -8.6327    0.0407    1.2470 H   0  0  0  0  0  0  0  0  0  0  0  0
   -8.3269   -1.7300    1.3541 H   0  0  0  0  0  0  0  0  0  0  0  0
   -9.8698   -1.1180    0.6967 H   0  0  0  0  0  0  0  0  0  0  0  0
   -5.9621   -1.5904   -0.9761 H   0  0  0  0  0  0  0  0  0  0  0  0
   -4.2554    2.2841    0.7954 H   0  0  0  0  0  0  0  0  0  0  0  0
   -1.2785    3.4734    0.1632 H   0  0  0  0  0  0  0  0  0  0  0  0
   -1.9819    4.4530    2.3468 H   0  0  0  0  0  0  0  0  0  0  0  0
   -2.7480    2.8881    2.8615 H   0  0  0  0  0  0  0  0  0  0  0  0
    0.2339    3.2760    2.1232 H   0  0  0  0  0  0  0  0  0  0  0  0
   -0.5494    1.7147    2.6249 H   0  0  0  0  0  0  0  0  0  0  0  0
    0.4154   -1.3886    0.0389 H   0  0  0  0  0  0  0  0  0  0  0  0
    0.4058   -0.7230   -1.6254 H   0  0  0  0  0  0  0  0  0  0  0  0
    2.2895    0.8116   -1.0381 H   0  0  0  0  0  0  0  0  0  0  0  0
    2.7338   -2.2082   -0.5300 H   0  0  0  0  0  0  0  0  0  0  0  0
    3.6786   -1.1389   -1.5744 H   0  0  0  0  0  0  0  0  0  0  0  0
    5.2183    0.7377    1.1697 H   0  0  0  0  0  0  0  0  0  0  0  0
    4.6189    0.9634   -0.4631 H   0  0  0  0  0  0  0  0  0  0  0  0
    6.2552    0.5540   -2.1194 H   0  0  0  0  0  0  0  0  0  0  0  0
    8.2848   -0.6037   -2.9117 H   0  0  0  0  0  0  0  0  0  0  0  0
    9.3645   -2.3384   -1.5057 H   0  0  0  0  0  0  0  0  0  0  0  0
    8.4023   -2.9158    0.7080 H   0  0  0  0  0  0  0  0  0  0  0  0
    6.3666   -1.7675    1.5152 H   0  0  0  0  0  0  0  0  0  0  0  0
    2.7825    1.0462    1.3668 H   0  0  0  0  0  0  0  0  0  0  0  0
    2.0303   -0.5078    1.7555 H   0  0  0  0  0  0  0  0  0  0  0  0
   -1.6889   -1.5462   -1.0216 H   0  0  0  0  0  0  0  0  0  0  0  0
  1  2  1  0
  2  3  2  0
  2  4  2  0
  2  5  1  0
  5  6  1  0
  6  7  2  0
  6  8  1  0
  8  9  2  0
  9 10  1  0
 10 11  1  0
 11 12  1  0
 12 13  1  0
 10 14  2  0
 14 15  1  0
 15 16  1  0
 16 17  1  0
 17 18  1  0
 18 19  1  0
 19 20  1  0
 20 21  1  0
 21 22  2  0
 22 23  1  0
 23 24  2  0
 24 25  1  0
 25 26  2  0
 19 27  1  0
 14 28  1  0
 28 29  2  0
 29 30  1  0
 29  8  1  0
 13 11  1  0
 27 17  1  0
 26 21  1  0
  1 31  1  0
  1 32  1  0
  1 33  1  0
  5 34  1  0
  9 35  1  0
 11 36  1  0
 12 37  1  0
 12 38  1  0
 13 39  1  0
 13 40  1  0
 16 41  1  0
 16 42  1  0
 17 43  1  0
 18 44  1  0
 18 45  1  0
 20 46  1  0
 20 47  1  0
 22 48  1  0
 23 49  1  0
 24 50  1  0
 25 51  1  0
 26 52  1  0
 27 53  1  0
 27 54  1  0
 28 55  1  0
M  END
$$$$
