
     RDKit          3D

 65 69  0  0  0  0  0  0  0  0999 V2000
  -11.6955   -2.1559   -1.1552 C   0  0  0  0  0  0  0  0  0  0  0  0
  -10.8218   -0.9741   -1.2180 C   0  0  0  0  0  0  0  0  0  0  0  0
  -11.0833    0.2442   -1.6365 N   0  0  0  0  0  0  0  0  0  0  0  0
   -9.9130    0.9616   -1.4889 N   0  0  0  0  0  0  0  0  0  0  0  0
   -9.0193    0.1300   -0.9913 C   0  0  0  0  0  0  0  0  0  0  0  0
   -7.6216    0.3502   -0.6401 C   0  0  0  0  0  0  0  0  0  0  0  0
   -7.0292    1.5931   -0.8899 C   0  0  0  0  0  0  0  0  0  0  0  0
   -5.6923    1.8288   -0.5533 C   0  0  0  0  0  0  0  0  0  0  0  0
   -4.9073    0.8297    0.0451 C   0  0  0  0  0  0  0  0  0  0  0  0
   -3.5124    1.1280    0.3939 C   0  0  0  0  0  0  0  0  0  0  0  0
   -2.4946    1.0246   -0.5667 C   0  0  0  0  0  0  0  0  0  0  0  0
   -1.1629    1.2946   -0.2332 C   0  0  0  0  0  0  0  0  0  0  0  0
   -0.8316    1.6654    1.0761 C   0  0  0  0  0  0  0  0  0  0  0  0
    0.5733    1.9500    1.4875 C   0  0  0  0  0  0  0  0  0  0  0  0
    0.7635    2.8124    2.3366 O   0  0  0  0  0  0  0  0  0  0  0  0
    1.5307    1.1611    0.8756 N   0  0  0  0  0  0  0  0  0  0  0  0
    2.9279    1.1993    1.0724 C   0  0  0  0  0  0  0  0  0  0  0  0
    3.5749    2.1136    1.9028 C   0  0  0  0  0  0  0  0  0  0  0  0
    4.9644    2.0725    2.0556 C   0  0  0  0  0  0  0  0  0  0  0  0
    5.7141    1.1156    1.3714 C   0  0  0  0  0  0  0  0  0  0  0  0
    7.0741    1.0873    1.5363 O   0  0  0  0  0  0  0  0  0  0  0  0
    5.0930    0.1871    0.5195 C   0  0  0  0  0  0  0  0  0  0  0  0
    5.7652   -0.8077   -0.2176 N   0  0  0  0  0  0  0  0  0  0  0  0
    6.5419   -0.2494   -1.3435 C   0  0  0  0  0  0  0  0  0  0  0  0
    7.3566   -1.3675   -2.0351 C   0  0  0  0  0  0  0  0  0  0  0  0
    8.3049   -2.0943   -1.1603 N   0  0  0  0  0  0  0  0  0  0  0  0
    9.6926   -1.7630   -1.4704 C   0  0  0  0  0  0  0  0  0  0  0  0
    8.0180   -1.8384    0.2702 C   0  0  0  0  0  0  0  0  0  0  0  0
    6.5104   -1.7862    0.6114 C   0  0  0  0  0  0  0  0  0  0  0  0
    3.6963    0.2502    0.3835 C   0  0  0  0  0  0  0  0  0  0  0  0
   -1.8436    1.7989    2.0331 C   0  0  0  0  0  0  0  0  0  0  0  0
   -3.1719    1.5284    1.6947 C   0  0  0  0  0  0  0  0  0  0  0  0
   -5.4916   -0.4302    0.2974 C   0  0  0  0  0  0  0  0  0  0  0  0
   -4.7096   -1.5453    0.9420 C   0  0  0  0  0  0  0  0  0  0  0  0
   -6.8396   -0.6521   -0.0457 C   0  0  0  0  0  0  0  0  0  0  0  0
   -9.5312   -1.1284   -0.7925 O   0  0  0  0  0  0  0  0  0  0  0  0
  -11.6008   -2.6578   -0.1869 H   0  0  0  0  0  0  0  0  0  0  0  0
  -12.7429   -1.8696   -1.2898 H   0  0  0  0  0  0  0  0  0  0  0  0
  -11.4289   -2.8671   -1.9428 H   0  0  0  0  0  0  0  0  0  0  0  0
   -7.6078    2.3941   -1.3480 H   0  0  0  0  0  0  0  0  0  0  0  0
   -5.2636    2.8092   -0.7555 H   0  0  0  0  0  0  0  0  0  0  0  0
   -2.7407    0.7344   -1.5871 H   0  0  0  0  0  0  0  0  0  0  0  0
   -0.4069    1.2359   -1.0110 H   0  0  0  0  0  0  0  0  0  0  0  0
    1.2020    0.4182    0.2726 H   0  0  0  0  0  0  0  0  0  0  0  0
    3.0265    2.8721    2.4522 H   0  0  0  0  0  0  0  0  0  0  0  0
    5.4365    2.7936    2.7149 H   0  0  0  0  0  0  0  0  0  0  0  0
    7.3201    1.7747    2.1747 H   0  0  0  0  0  0  0  0  0  0  0  0
    5.8526    0.1872   -2.0776 H   0  0  0  0  0  0  0  0  0  0  0  0
    7.2252    0.5456   -1.0185 H   0  0  0  0  0  0  0  0  0  0  0  0
    6.6495   -2.1134   -2.4187 H   0  0  0  0  0  0  0  0  0  0  0  0
    7.8602   -0.9538   -2.9168 H   0  0  0  0  0  0  0  0  0  0  0  0
    9.9245   -2.0209   -2.5099 H   0  0  0  0  0  0  0  0  0  0  0  0
    9.9082   -0.6989   -1.3229 H   0  0  0  0  0  0  0  0  0  0  0  0
   10.3761   -2.3457   -0.8436 H   0  0  0  0  0  0  0  0  0  0  0  0
    8.4830   -2.6328    0.8680 H   0  0  0  0  0  0  0  0  0  0  0  0
    8.4800   -0.8941    0.5838 H   0  0  0  0  0  0  0  0  0  0  0  0
    6.0721   -2.7734    0.4185 H   0  0  0  0  0  0  0  0  0  0  0  0
    6.3891   -1.6046    1.6866 H   0  0  0  0  0  0  0  0  0  0  0  0
    3.2197   -0.4744   -0.2726 H   0  0  0  0  0  0  0  0  0  0  0  0
   -1.6001    2.1102    3.0473 H   0  0  0  0  0  0  0  0  0  0  0  0
   -3.9451    1.6320    2.4535 H   0  0  0  0  0  0  0  0  0  0  0  0
   -5.2914   -2.4724    0.9820 H   0  0  0  0  0  0  0  0  0  0  0  0
   -3.8016   -1.7590    0.3690 H   0  0  0  0  0  0  0  0  0  0  0  0
   -4.4428   -1.2785    1.9692 H   0  0  0  0  0  0  0  0  0  0  0  0
   -7.2825   -1.6251    0.1617 H   0  0  0  0  0  0  0  0  0  0  0  0
  1  2  1  0
  2  3  2  0
  3  4  1  0
  4  5  2  0
  5  6  1  0
  6  7  1  0
  7  8  2  0
  8  9  1  0
  9 10  1  0
 10 11  1  0
 11 12  2  0
 12 13  1  0
 13 14  1  0
 14 15  2  0
 14 16  1  0
 16 17  1  0
 17 18  1  0
 18 19  2  0
 19 20  1  0
 20 21  1  0
 20 22  2  0
 22 23  1  0
 23 24  1  0
 24 25  1  0
 25 26  1  0
 26 27  1  0
 26 28  1  0
 28 29  1  0
 22 30  1  0
 13 31  2  0
 31 32  1  0
  9 33  2  0
 33 34  1  0
 33 35  1  0
  5 36  1  0
 36  2  1  0
 35  6  2  0
 32 10  2  0
 30 17  2  0
 29 23  1  0
  1 37  1  0
  1 38  1  0
  1 39  1  0
  7 40  1  0
  8 41  1  0
 11 42  1  0
 12 43  1  0
 16 44  1  0
 18 45  1  0
 19 46  1  0
 21 47  1  0
 24 48  1  0
 24 49  1  0
 25 50  1  0
 25 51  1  0
 27 52  1  0
 27 53  1  0
 27 54  1  0
 28 55  1  0
 28 56  1  0
 29 57  1  0
 29 58  1  0
 30 59  1  0
 31 60  1  0
 32 61  1  0
 34 62  1  0
 34 63  1  0
 34 64  1  0
 35 65  1  0
M  END
$$$$
