
     RDKit          3D

 43 46  0  0  0  0  0  0  0  0999 V2000
   -2.8524   -2.1995   -1.3349 C   0  0  0  0  0  0  0  0  0  0  0  0
   -2.0691   -0.9682   -1.3089 N   0  0  0  0  0  0  0  0  0  0  0  0
   -0.7851   -1.1438   -2.0011 C   0  0  0  0  0  0  0  0  0  0  0  0
    0.0810    0.1297   -1.9953 C   0  0  0  0  0  0  0  0  0  0  0  0
    0.2046    0.7401   -0.5758 C   0  0  0  0  0  0  0  0  0  0  0  0
    0.9839    2.0933   -0.6015 C   0  0  0  0  0  0  0  0  0  0  0  0
    0.0885    3.3255   -0.4807 C   0  0  0  0  0  0  0  0  0  0  0  0
   -0.7528    3.2874    0.7978 C   0  0  0  0  0  0  0  0  0  0  0  0
   -1.2998    1.8936    1.1300 C   0  0  0  0  0  0  0  0  0  0  0  0
   -1.2566    0.9854   -0.1036 C   0  0  0  0  0  0  0  0  0  0  0  0
   -1.9663   -0.3672    0.0460 C   0  0  0  0  0  0  0  0  0  0  0  0
   -1.2850   -1.2089    1.1449 C   0  0  0  0  0  0  0  0  0  0  0  0
    0.2230   -1.2091    1.0960 C   0  0  0  0  0  0  0  0  0  0  0  0
    0.9174   -2.1297    1.8949 C   0  0  0  0  0  0  0  0  0  0  0  0
    2.3105   -2.1934    1.8637 C   0  0  0  0  0  0  0  0  0  0  0  0
    3.0349   -1.3781    0.9993 C   0  0  0  0  0  0  0  0  0  0  0  0
    4.4347   -1.3764    1.0359 N   0  0  0  0  0  0  0  0  0  0  0  0
    2.3478   -0.4115    0.2584 C   0  0  0  0  0  0  0  0  0  0  0  0
    0.9414   -0.2992    0.2977 C   0  0  0  0  0  0  0  0  0  0  0  0
   -3.8217   -2.0559   -0.8450 H   0  0  0  0  0  0  0  0  0  0  0  0
   -3.0671   -2.4899   -2.3695 H   0  0  0  0  0  0  0  0  0  0  0  0
   -2.3392   -3.0373   -0.8517 H   0  0  0  0  0  0  0  0  0  0  0  0
   -0.2214   -1.9822   -1.5737 H   0  0  0  0  0  0  0  0  0  0  0  0
   -0.9750   -1.4093   -3.0489 H   0  0  0  0  0  0  0  0  0  0  0  0
   -0.3690    0.8675   -2.6737 H   0  0  0  0  0  0  0  0  0  0  0  0
    1.0683   -0.1089   -2.4111 H   0  0  0  0  0  0  0  0  0  0  0  0
    1.6900    2.1520    0.2372 H   0  0  0  0  0  0  0  0  0  0  0  0
    1.5882    2.1708   -1.5138 H   0  0  0  0  0  0  0  0  0  0  0  0
   -0.5655    3.3930   -1.3587 H   0  0  0  0  0  0  0  0  0  0  0  0
    0.7012    4.2345   -0.4851 H   0  0  0  0  0  0  0  0  0  0  0  0
   -0.1550    3.6435    1.6458 H   0  0  0  0  0  0  0  0  0  0  0  0
   -1.5838    3.9952    0.6924 H   0  0  0  0  0  0  0  0  0  0  0  0
   -0.7115    1.4694    1.9517 H   0  0  0  0  0  0  0  0  0  0  0  0
   -2.3266    1.9874    1.5028 H   0  0  0  0  0  0  0  0  0  0  0  0
   -1.8036    1.5320   -0.8892 H   0  0  0  0  0  0  0  0  0  0  0  0
   -2.9954   -0.1712    0.3768 H   0  0  0  0  0  0  0  0  0  0  0  0
   -1.5799   -0.8062    2.1232 H   0  0  0  0  0  0  0  0  0  0  0  0
   -1.6545   -2.2400    1.1198 H   0  0  0  0  0  0  0  0  0  0  0  0
    0.3727   -2.8047    2.5514 H   0  0  0  0  0  0  0  0  0  0  0  0
    2.8227   -2.8976    2.5130 H   0  0  0  0  0  0  0  0  0  0  0  0
    4.8361   -2.2636    1.3215 H   0  0  0  0  0  0  0  0  0  0  0  0
    4.8651   -1.0111    0.1926 H   0  0  0  0  0  0  0  0  0  0  0  0
    2.9241    0.2627   -0.3706 H   0  0  0  0  0  0  0  0  0  0  0  0
  1  2  1  0
  2  3  1  0
  3  4  1  0
  4  5  1  0
  5  6  1  0
  6  7  1  0
  7  8  1  0
  8  9  1  0
  9 10  1  0
 10 11  1  0
 11 12  1  0
 12 13  1  0
 13 14  1  0
 14 15  2  0
 15 16  1  0
 16 17  1  0
 16 18  2  0
 18 19  1  0
 11  2  1  0
 19 13  2  0
 10  5  1  0
 19  5  1  0
  1 20  1  0
  1 21  1  0
  1 22  1  0
  3 23  1  0
  3 24  1  0
  4 25  1  0
  4 26  1  0
  6 27  1  0
  6 28  1  0
  7 29  1  0
  7 30  1  0
  8 31  1  0
  8 32  1  0
  9 33  1  0
  9 34  1  0
 10 35  1  0
 11 36  1  0
 12 37  1  0
 12 38  1  0
 14 39  1  0
 15 40  1  0
 17 41  1  0
 17 42  1  0
 18 43  1  0
M  END
$$$$
