
     RDKit          3D

 43 46  0  0  0  0  0  0  0  0999 V2000
   -2.8464   -2.2180   -1.3168 C   0  0  0  0  0  0  0  0  0  0  0  0
   -2.0694   -0.9827   -1.2976 N   0  0  0  0  0  0  0  0  0  0  0  0
   -0.7874   -1.1536   -1.9946 C   0  0  0  0  0  0  0  0  0  0  0  0
    0.0722    0.1244   -1.9960 C   0  0  0  0  0  0  0  0  0  0  0  0
    0.1984    0.7395   -0.5788 C   0  0  0  0  0  0  0  0  0  0  0  0
    0.9706    2.0966   -0.6116 C   0  0  0  0  0  0  0  0  0  0  0  0
    0.0693    3.3246   -0.4906 C   0  0  0  0  0  0  0  0  0  0  0  0
   -0.7664    3.2858    0.7916 C   0  0  0  0  0  0  0  0  0  0  0  0
   -1.3049    1.8902    1.1299 C   0  0  0  0  0  0  0  0  0  0  0  0
   -1.2621    0.9786   -0.1012 C   0  0  0  0  0  0  0  0  0  0  0  0
   -1.9642   -0.3772    0.0551 C   0  0  0  0  0  0  0  0  0  0  0  0
   -1.2741   -1.2121    1.1536 C   0  0  0  0  0  0  0  0  0  0  0  0
    0.2338   -1.2048    1.0986 C   0  0  0  0  0  0  0  0  0  0  0  0
    0.9361   -2.1195    1.8971 C   0  0  0  0  0  0  0  0  0  0  0  0
    2.3294   -2.1761    1.8604 C   0  0  0  0  0  0  0  0  0  0  0  0
    3.0461   -1.3595    0.9907 C   0  0  0  0  0  0  0  0  0  0  0  0
    4.4459   -1.3505    1.0215 N   0  0  0  0  0  0  0  0  0  0  0  0
    2.3509   -0.3986    0.2499 C   0  0  0  0  0  0  0  0  0  0  0  0
    0.9441   -0.2935    0.2947 C   0  0  0  0  0  0  0  0  0  0  0  0
   -3.8144   -2.0781   -0.8234 H   0  0  0  0  0  0  0  0  0  0  0  0
   -3.0638   -2.5125   -2.3497 H   0  0  0  0  0  0  0  0  0  0  0  0
   -2.3269   -3.0518   -0.8334 H   0  0  0  0  0  0  0  0  0  0  0  0
   -0.2176   -1.9878   -1.5671 H   0  0  0  0  0  0  0  0  0  0  0  0
   -0.9802   -1.4231   -3.0408 H   0  0  0  0  0  0  0  0  0  0  0  0
   -0.3845    0.8579   -2.6746 H   0  0  0  0  0  0  0  0  0  0  0  0
    1.0590   -0.1104   -2.4151 H   0  0  0  0  0  0  0  0  0  0  0  0
    1.6799    2.1614    0.2241 H   0  0  0  0  0  0  0  0  0  0  0  0
    1.5707    2.1746   -1.5266 H   0  0  0  0  0  0  0  0  0  0  0  0
   -0.5886    3.3861   -1.3660 H   0  0  0  0  0  0  0  0  0  0  0  0
    0.6774    4.2367   -0.5001 H   0  0  0  0  0  0  0  0  0  0  0  0
   -0.1669    3.6473    1.6360 H   0  0  0  0  0  0  0  0  0  0  0  0
   -1.6015    3.9890    0.6877 H   0  0  0  0  0  0  0  0  0  0  0  0
   -0.7111    1.4713    1.9504 H   0  0  0  0  0  0  0  0  0  0  0  0
   -2.3306    1.9798    1.5067 H   0  0  0  0  0  0  0  0  0  0  0  0
   -1.8152    1.5201   -0.8861 H   0  0  0  0  0  0  0  0  0  0  0  0
   -2.9930   -0.1856    0.3896 H   0  0  0  0  0  0  0  0  0  0  0  0
   -1.5670   -0.8081    2.1320 H   0  0  0  0  0  0  0  0  0  0  0  0
   -1.6383   -2.2453    1.1330 H   0  0  0  0  0  0  0  0  0  0  0  0
    0.3976   -2.7953    2.5578 H   0  0  0  0  0  0  0  0  0  0  0  0
    2.8479   -2.8758    2.5096 H   0  0  0  0  0  0  0  0  0  0  0  0
    4.8531   -2.2349    1.3081 H   0  0  0  0  0  0  0  0  0  0  0  0
    4.8709   -0.9856    0.1754 H   0  0  0  0  0  0  0  0  0  0  0  0
    2.9211    0.2767   -0.3834 H   0  0  0  0  0  0  0  0  0  0  0  0
  1  2  1  0
  2  3  1  0
  3  4  1  0
  4  5  1  0
  5  6  1  0
  6  7  1  0
  7  8  1  0
  8  9  1  0
  9 10  1  0
 10 11  1  0
 11 12  1  0
 12 13  1  0
 13 14  1  0
 14 15  2  0
 15 16  1  0
 16 17  1  0
 16 18  2  0
 18 19  1  0
 11  2  1  0
 19 13  2  0
 10  5  1  0
 19  5  1  0
  1 20  1  0
  1 21  1  0
  1 22  1  0
  3 23  1  0
  3 24  1  0
  4 25  1  0
  4 26  1  0
  6 27  1  0
  6 28  1  0
  7 29  1  0
  7 30  1  0
  8 31  1  0
  8 32  1  0
  9 33  1  0
  9 34  1  0
 10 35  1  0
 11 36  1  0
 12 37  1  0
 12 38  1  0
 14 39  1  0
 15 40  1  0
 17 41  1  0
 17 42  1  0
 18 43  1  0
M  END
$$$$
