
     RDKit          3D

 40 42  0  0  0  0  0  0  0  0999 V2000
    1.7656    2.6968    1.5950 O   0  0  0  0  0  0  0  0  0  0  0  0
    1.3157    2.0614    0.6316 N   0  0  0  0  0  0  0  0  0  0  0  0
    0.5177    2.4880   -0.2151 O   0  0  0  0  0  0  0  0  0  0  0  0
    1.7537    0.7005    0.4845 C   0  0  0  0  0  0  0  0  0  0  0  0
    0.9848   -0.3135    1.0689 C   0  0  0  0  0  0  0  0  0  0  0  0
   -0.1270    0.0643    1.7663 O   0  0  0  0  0  0  0  0  0  0  0  0
   -1.1008   -0.9398    2.0588 C   0  0  0  0  0  0  0  0  0  0  0  0
   -2.3806   -0.2603    2.5494 C   0  0  0  0  0  0  0  0  0  0  0  0
   -2.9747    0.7423    1.5517 C   0  0  0  0  0  0  0  0  0  0  0  0
   -3.3634    0.1279    0.2294 C   0  0  0  0  0  0  0  0  0  0  0  0
   -4.4040   -0.8077    0.1515 C   0  0  0  0  0  0  0  0  0  0  0  0
   -4.7497   -1.3815   -1.0731 C   0  0  0  0  0  0  0  0  0  0  0  0
   -4.0625   -1.0231   -2.2313 C   0  0  0  0  0  0  0  0  0  0  0  0
   -3.0316   -0.0880   -2.1668 C   0  0  0  0  0  0  0  0  0  0  0  0
   -2.6843    0.4863   -0.9431 C   0  0  0  0  0  0  0  0  0  0  0  0
    1.4447   -1.6134    0.9045 C   0  0  0  0  0  0  0  0  0  0  0  0
    0.8062   -2.6570    1.4500 F   0  0  0  0  0  0  0  0  0  0  0  0
    2.6027   -1.8781    0.1778 C   0  0  0  0  0  0  0  0  0  0  0  0
    3.3410   -0.8590   -0.4016 C   0  0  0  0  0  0  0  0  0  0  0  0
    4.4473   -1.1927   -1.0903 N   0  0  0  0  0  0  0  0  0  0  0  0
    5.1384   -0.1791   -1.6361 C   0  0  0  0  0  0  0  0  0  0  0  0
    6.2612   -0.5138   -2.3351 O   0  0  0  0  0  0  0  0  0  0  0  0
    4.7337    1.1345   -1.4973 C   0  0  0  0  0  0  0  0  0  0  0  0
    5.4362    2.1570   -2.0508 O   0  0  0  0  0  0  0  0  0  0  0  0
    3.6371    1.5005   -0.8189 N   0  0  0  0  0  0  0  0  0  0  0  0
    2.9202    0.4898   -0.2549 C   0  0  0  0  0  0  0  0  0  0  0  0
   -0.7242   -1.5867    2.8595 H   0  0  0  0  0  0  0  0  0  0  0  0
   -1.3188   -1.5459    1.1717 H   0  0  0  0  0  0  0  0  0  0  0  0
   -2.1556    0.2875    3.4731 H   0  0  0  0  0  0  0  0  0  0  0  0
   -3.1186   -1.0297    2.8042 H   0  0  0  0  0  0  0  0  0  0  0  0
   -3.8695    1.2000    1.9929 H   0  0  0  0  0  0  0  0  0  0  0  0
   -2.2696    1.5677    1.3925 H   0  0  0  0  0  0  0  0  0  0  0  0
   -4.9556   -1.0925    1.0444 H   0  0  0  0  0  0  0  0  0  0  0  0
   -5.5590   -2.1052   -1.1242 H   0  0  0  0  0  0  0  0  0  0  0  0
   -4.3349   -1.4671   -3.1850 H   0  0  0  0  0  0  0  0  0  0  0  0
   -2.5005    0.1998   -3.0702 H   0  0  0  0  0  0  0  0  0  0  0  0
   -1.8817    1.2208   -0.9121 H   0  0  0  0  0  0  0  0  0  0  0  0
    2.9336   -2.9086    0.0686 H   0  0  0  0  0  0  0  0  0  0  0  0
    6.6279    0.3323   -2.6510 H   0  0  0  0  0  0  0  0  0  0  0  0
    4.8990    2.9222   -1.7695 H   0  0  0  0  0  0  0  0  0  0  0  0
  1  2  2  0
  2  3  1  0
  2  4  1  0
  4  5  1  0
  5  6  1  0
  6  7  1  0
  7  8  1  0
  8  9  1  0
  9 10  1  0
 10 11  2  0
 11 12  1  0
 12 13  2  0
 13 14  1  0
 14 15  2  0
  5 16  2  0
 16 17  1  0
 16 18  1  0
 18 19  2  0
 19 20  1  0
 20 21  2  0
 21 22  1  0
 21 23  1  0
 23 24  1  0
 23 25  2  0
 25 26  1  0
 26  4  2  0
 15 10  1  0
 26 19  1  0
  7 27  1  0
  7 28  1  0
  8 29  1  0
  8 30  1  0
  9 31  1  0
  9 32  1  0
 11 33  1  0
 12 34  1  0
 13 35  1  0
 14 36  1  0
 15 37  1  0
 18 38  1  0
 22 39  1  0
 24 40  1  0
M  CHG  2   2   1   3  -1
M  END
$$$$
