
     RDKit          3D

 48 52  0  0  0  0  0  0  0  0999 V2000
    7.5091    0.2039   -1.0245 C   0  0  0  0  0  0  0  0  0  0  0  0
    6.5344    0.7601   -1.8092 C   0  0  0  0  0  0  0  0  0  0  0  0
    5.2171    0.5662   -1.6098 N   0  0  0  0  0  0  0  0  0  0  0  0
    4.8424   -0.2163   -0.5811 C   0  0  0  0  0  0  0  0  0  0  0  0
    3.4819   -0.4585   -0.3753 N   0  0  0  0  0  0  0  0  0  0  0  0
    3.1533   -0.8515    1.0017 C   0  0  0  0  0  0  0  0  0  0  0  0
    1.6513   -1.1919    1.1313 C   0  0  0  0  0  0  0  0  0  0  0  0
    0.7706   -0.0988    0.6595 N   0  0  0  0  0  0  0  0  0  0  0  0
   -0.6481   -0.4962    0.7838 C   0  0  0  0  0  0  0  0  0  0  0  0
   -1.6479    0.6392    0.6912 C   0  0  0  0  0  0  0  0  0  0  0  0
   -1.2512    1.9659    0.9805 C   0  0  0  0  0  0  0  0  0  0  0  0
   -2.1358    3.0515    0.8873 C   0  0  0  0  0  0  0  0  0  0  0  0
   -3.4578    2.8491    0.5154 C   0  0  0  0  0  0  0  0  0  0  0  0
   -3.8700    1.5484    0.2725 C   0  0  0  0  0  0  0  0  0  0  0  0
   -2.9966    0.4316    0.3793 C   0  0  0  0  0  0  0  0  0  0  0  0
   -3.7892   -0.7713    0.1191 C   0  0  0  0  0  0  0  0  0  0  0  0
   -3.4801   -2.1229    0.1646 C   0  0  0  0  0  0  0  0  0  0  0  0
   -4.4747   -3.0648   -0.1337 C   0  0  0  0  0  0  0  0  0  0  0  0
   -5.7757   -2.6613   -0.4631 C   0  0  0  0  0  0  0  0  0  0  0  0
   -6.1076   -1.3093   -0.4891 C   0  0  0  0  0  0  0  0  0  0  0  0
   -5.1142   -0.3866   -0.1923 C   0  0  0  0  0  0  0  0  0  0  0  0
   -5.2631    1.1136   -0.1244 C   0  0  0  0  0  0  0  0  0  0  0  0
    1.1183    0.1973   -0.7536 C   0  0  0  0  0  0  0  0  0  0  0  0
    2.6048    0.5803   -0.9345 C   0  0  0  0  0  0  0  0  0  0  0  0
    5.7391   -0.8021    0.2338 N   0  0  0  0  0  0  0  0  0  0  0  0
    7.0461   -0.5809   -0.0022 C   0  0  0  0  0  0  0  0  0  0  0  0
    8.5617    0.3689   -1.2001 H   0  0  0  0  0  0  0  0  0  0  0  0
    6.7844    1.3980   -2.6514 H   0  0  0  0  0  0  0  0  0  0  0  0
    3.7158   -1.7444    1.3022 H   0  0  0  0  0  0  0  0  0  0  0  0
    3.4016   -0.0391    1.6981 H   0  0  0  0  0  0  0  0  0  0  0  0
    1.4432   -1.3993    2.1880 H   0  0  0  0  0  0  0  0  0  0  0  0
    1.4446   -2.1134    0.5700 H   0  0  0  0  0  0  0  0  0  0  0  0
   -0.8116   -0.9634    1.7636 H   0  0  0  0  0  0  0  0  0  0  0  0
   -0.8589   -1.2421    0.0115 H   0  0  0  0  0  0  0  0  0  0  0  0
   -0.2230    2.1690    1.2780 H   0  0  0  0  0  0  0  0  0  0  0  0
   -1.7784    4.0547    1.1053 H   0  0  0  0  0  0  0  0  0  0  0  0
   -4.1461    3.6833    0.4332 H   0  0  0  0  0  0  0  0  0  0  0  0
   -2.4979   -2.4841    0.4387 H   0  0  0  0  0  0  0  0  0  0  0  0
   -4.2350   -4.1254   -0.1030 H   0  0  0  0  0  0  0  0  0  0  0  0
   -6.5314   -3.4097   -0.6888 H   0  0  0  0  0  0  0  0  0  0  0  0
   -7.1169   -0.9905   -0.7277 H   0  0  0  0  0  0  0  0  0  0  0  0
   -5.5327    1.5222   -1.1028 H   0  0  0  0  0  0  0  0  0  0  0  0
   -5.9896    1.3964    0.6432 H   0  0  0  0  0  0  0  0  0  0  0  0
    0.5111    1.0287   -1.1289 H   0  0  0  0  0  0  0  0  0  0  0  0
    0.9013   -0.6738   -1.3870 H   0  0  0  0  0  0  0  0  0  0  0  0
    2.7793    0.7059   -2.0105 H   0  0  0  0  0  0  0  0  0  0  0  0
    2.7933    1.5434   -0.4412 H   0  0  0  0  0  0  0  0  0  0  0  0
    7.7285   -1.0757    0.6820 H   0  0  0  0  0  0  0  0  0  0  0  0
  1  2  2  0
  2  3  1  0
  3  4  2  0
  4  5  1  0
  5  6  1  0
  6  7  1  0
  7  8  1  0
  8  9  1  0
  9 10  1  0
 10 11  2  0
 11 12  1  0
 12 13  2  0
 13 14  1  0
 14 15  2  0
 15 16  1  0
 16 17  2  0
 17 18  1  0
 18 19  2  0
 19 20  1  0
 20 21  2  0
 21 22  1  0
  8 23  1  0
 23 24  1  0
  4 25  1  0
 25 26  2  0
 26  1  1  0
 24  5  1  0
 15 10  1  0
 21 16  1  0
 22 14  1  0
  1 27  1  0
  2 28  1  0
  6 29  1  0
  6 30  1  0
  7 31  1  0
  7 32  1  0
  9 33  1  0
  9 34  1  0
 11 35  1  0
 12 36  1  0
 13 37  1  0
 17 38  1  0
 18 39  1  0
 19 40  1  0
 20 41  1  0
 22 42  1  0
 22 43  1  0
 23 44  1  0
 23 45  1  0
 24 46  1  0
 24 47  1  0
 26 48  1  0
M  END
$$$$
