
     RDKit          3D

 41 43  0  0  0  0  0  0  0  0999 V2000
   -3.6873    1.0700    3.2026 C   0  0  0  0  0  0  0  0  0  0  0  0
   -3.6221    0.8520    1.7199 C   0  0  0  0  0  0  0  0  0  0  0  0
   -4.7889    0.8783    0.9490 C   0  0  0  0  0  0  0  0  0  0  0  0
   -4.7367    0.6517   -0.4312 C   0  0  0  0  0  0  0  0  0  0  0  0
   -5.9940    0.6571   -1.2508 C   0  0  0  0  0  0  0  0  0  0  0  0
   -3.5041    0.3599   -1.0355 C   0  0  0  0  0  0  0  0  0  0  0  0
   -2.3318    0.3142   -0.2797 C   0  0  0  0  0  0  0  0  0  0  0  0
   -1.0639    0.0301   -0.8175 N   0  0  0  0  0  0  0  0  0  0  0  0
   -0.7314   -0.2560   -2.1281 C   0  0  0  0  0  0  0  0  0  0  0  0
   -1.4831   -0.3249   -3.0921 O   0  0  0  0  0  0  0  0  0  0  0  0
    0.7277   -0.5014   -2.3149 C   0  0  0  0  0  0  0  0  0  0  0  0
    1.2258   -0.8448   -3.5603 C   0  0  0  0  0  0  0  0  0  0  0  0
    2.5449   -1.0786   -3.7641 N   0  0  0  0  0  0  0  0  0  0  0  0
    3.3328   -0.9528   -2.6652 C   0  0  0  0  0  0  0  0  0  0  0  0
    2.8476   -0.6124   -1.3995 C   0  0  0  0  0  0  0  0  0  0  0  0
    3.7072   -0.4790   -0.2090 C   0  0  0  0  0  0  0  0  0  0  0  0
    3.4241    0.4890    0.7738 C   0  0  0  0  0  0  0  0  0  0  0  0
    4.2266    0.6333    1.9118 C   0  0  0  0  0  0  0  0  0  0  0  0
    5.3336   -0.1959    2.0966 C   0  0  0  0  0  0  0  0  0  0  0  0
    6.1570   -0.0533    3.2614 C   0  0  0  0  0  0  0  0  0  0  0  0
    6.8249    0.0616    4.2034 N   0  0  0  0  0  0  0  0  0  0  0  0
    5.6305   -1.1680    1.1391 C   0  0  0  0  0  0  0  0  0  0  0  0
    4.8253   -1.3073    0.0011 C   0  0  0  0  0  0  0  0  0  0  0  0
    1.5219   -0.3741   -1.2090 N   0  0  0  0  0  0  0  0  0  0  0  0
   -2.4006    0.5590    1.0979 C   0  0  0  0  0  0  0  0  0  0  0  0
   -4.5047    1.7512    3.4620 H   0  0  0  0  0  0  0  0  0  0  0  0
   -2.7604    1.5211    3.5722 H   0  0  0  0  0  0  0  0  0  0  0  0
   -3.8454    0.1159    3.7147 H   0  0  0  0  0  0  0  0  0  0  0  0
   -5.7467    1.0788    1.4256 H   0  0  0  0  0  0  0  0  0  0  0  0
   -5.7964    1.0183   -2.2655 H   0  0  0  0  0  0  0  0  0  0  0  0
   -6.4075   -0.3545   -1.3080 H   0  0  0  0  0  0  0  0  0  0  0  0
   -6.7453    1.3215   -0.8112 H   0  0  0  0  0  0  0  0  0  0  0  0
   -3.4874    0.1683   -2.1041 H   0  0  0  0  0  0  0  0  0  0  0  0
   -0.2752    0.0240   -0.1747 H   0  0  0  0  0  0  0  0  0  0  0  0
    0.5838   -0.9423   -4.4296 H   0  0  0  0  0  0  0  0  0  0  0  0
    4.3891   -1.1247   -2.8462 H   0  0  0  0  0  0  0  0  0  0  0  0
    2.5671    1.1515    0.6529 H   0  0  0  0  0  0  0  0  0  0  0  0
    3.9768    1.3962    2.6473 H   0  0  0  0  0  0  0  0  0  0  0  0
    6.4856   -1.8292    1.2720 H   0  0  0  0  0  0  0  0  0  0  0  0
    5.0782   -2.0922   -0.7102 H   0  0  0  0  0  0  0  0  0  0  0  0
   -1.4981    0.5189    1.7031 H   0  0  0  0  0  0  0  0  0  0  0  0
  1  2  1  0
  2  3  1  0
  3  4  2  0
  4  5  1  0
  4  6  1  0
  6  7  2  0
  7  8  1  0
  8  9  1  0
  9 10  2  0
  9 11  1  0
 11 12  1  0
 12 13  2  0
 13 14  1  0
 14 15  2  0
 15 16  1  0
 16 17  1  0
 17 18  2  0
 18 19  1  0
 19 20  1  0
 20 21  3  0
 19 22  2  0
 22 23  1  0
 15 24  1  0
  7 25  1  0
 25  2  2  0
 24 11  2  0
 23 16  2  0
  1 26  1  0
  1 27  1  0
  1 28  1  0
  3 29  1  0
  5 30  1  0
  5 31  1  0
  5 32  1  0
  6 33  1  0
  8 34  1  0
 12 35  1  0
 14 36  1  0
 17 37  1  0
 18 38  1  0
 22 39  1  0
 23 40  1  0
 25 41  1  0
M  END
$$$$
