
     RDKit          3D

 71 75  0  0  0  0  0  0  0  0999 V2000
   12.4999   -0.5774    1.0972 C   0  0  0  0  0  0  0  0  0  0  0  0
   11.3757    0.3434    0.8671 C   0  0  0  0  0  0  0  0  0  0  0  0
   11.3757    1.6518    0.7242 N   0  0  0  0  0  0  0  0  0  0  0  0
   10.0595    2.0181    0.5281 N   0  0  0  0  0  0  0  0  0  0  0  0
    9.3470    0.9081    0.5779 C   0  0  0  0  0  0  0  0  0  0  0  0
    7.9099    0.7093    0.4421 C   0  0  0  0  0  0  0  0  0  0  0  0
    7.1011    1.7697    0.0226 C   0  0  0  0  0  0  0  0  0  0  0  0
    5.7191    1.6055   -0.1059 C   0  0  0  0  0  0  0  0  0  0  0  0
    5.0957    0.3806    0.1940 C   0  0  0  0  0  0  0  0  0  0  0  0
    3.6322    0.2756    0.0568 C   0  0  0  0  0  0  0  0  0  0  0  0
    2.7855    1.0330    0.8854 C   0  0  0  0  0  0  0  0  0  0  0  0
    1.3956    0.9513    0.7621 C   0  0  0  0  0  0  0  0  0  0  0  0
    0.8325    0.1043   -0.1982 C   0  0  0  0  0  0  0  0  0  0  0  0
   -0.6423   -0.0059   -0.3508 C   0  0  0  0  0  0  0  0  0  0  0  0
   -1.1312   -1.1211   -0.4720 O   0  0  0  0  0  0  0  0  0  0  0  0
   -1.2997    1.2113   -0.3574 N   0  0  0  0  0  0  0  0  0  0  0  0
   -2.6869    1.4420   -0.4743 C   0  0  0  0  0  0  0  0  0  0  0  0
   -3.1010    2.7735   -0.5498 C   0  0  0  0  0  0  0  0  0  0  0  0
   -4.4499    3.0801   -0.6964 C   0  0  0  0  0  0  0  0  0  0  0  0
   -5.3880    2.0497   -0.7684 C   0  0  0  0  0  0  0  0  0  0  0  0
   -6.7078    2.3802   -0.9688 O   0  0  0  0  0  0  0  0  0  0  0  0
   -7.2185    2.7560   -2.4776 S   0  0  0  0  0  0  0  0  0  0  0  0
   -7.3304    1.1234   -3.1771 C   0  0  0  0  0  0  0  0  0  0  0  0
   -8.5679    3.2810   -2.3712 O   0  0  0  0  0  0  0  0  0  0  0  0
   -6.1970    3.4990   -3.1904 O   0  0  0  0  0  0  0  0  0  0  0  0
   -5.0243    0.6942   -0.6276 C   0  0  0  0  0  0  0  0  0  0  0  0
   -6.0042   -0.3083   -0.6481 N   0  0  0  0  0  0  0  0  0  0  0  0
   -5.6495   -1.6993   -1.0175 C   0  0  0  0  0  0  0  0  0  0  0  0
   -5.2927   -2.5804    0.2045 C   0  0  0  0  0  0  0  0  0  0  0  0
   -6.3267   -2.5382    1.2621 N   0  0  0  0  0  0  0  0  0  0  0  0
   -5.9193   -3.3408    2.4120 C   0  0  0  0  0  0  0  0  0  0  0  0
   -6.5523   -1.1324    1.6589 C   0  0  0  0  0  0  0  0  0  0  0  0
   -6.9906   -0.2561    0.4627 C   0  0  0  0  0  0  0  0  0  0  0  0
   -3.6495    0.4231   -0.5109 C   0  0  0  0  0  0  0  0  0  0  0  0
    1.6574   -0.6681   -1.0191 C   0  0  0  0  0  0  0  0  0  0  0  0
    3.0472   -0.5708   -0.9003 C   0  0  0  0  0  0  0  0  0  0  0  0
    5.9030   -0.6922    0.6335 C   0  0  0  0  0  0  0  0  0  0  0  0
    5.3206   -2.0381    0.9848 C   0  0  0  0  0  0  0  0  0  0  0  0
    7.2983   -0.5175    0.7370 C   0  0  0  0  0  0  0  0  0  0  0  0
   10.1238   -0.2050    0.7895 O   0  0  0  0  0  0  0  0  0  0  0  0
   12.3483   -1.1465    2.0187 H   0  0  0  0  0  0  0  0  0  0  0  0
   13.4395   -0.0243    1.1864 H   0  0  0  0  0  0  0  0  0  0  0  0
   12.5934   -1.2830    0.2668 H   0  0  0  0  0  0  0  0  0  0  0  0
    7.5426    2.7373   -0.2133 H   0  0  0  0  0  0  0  0  0  0  0  0
    5.1232    2.4509   -0.4485 H   0  0  0  0  0  0  0  0  0  0  0  0
    3.2129    1.6845    1.6475 H   0  0  0  0  0  0  0  0  0  0  0  0
    0.7674    1.5274    1.4372 H   0  0  0  0  0  0  0  0  0  0  0  0
   -0.7168    2.0387   -0.3607 H   0  0  0  0  0  0  0  0  0  0  0  0
   -2.3833    3.5883   -0.5177 H   0  0  0  0  0  0  0  0  0  0  0  0
   -4.7637    4.1165   -0.7825 H   0  0  0  0  0  0  0  0  0  0  0  0
   -7.9782    0.5102   -2.5501 H   0  0  0  0  0  0  0  0  0  0  0  0
   -7.7711    1.2187   -4.1734 H   0  0  0  0  0  0  0  0  0  0  0  0
   -6.3325    0.6942   -3.2704 H   0  0  0  0  0  0  0  0  0  0  0  0
   -4.8459   -1.7256   -1.7628 H   0  0  0  0  0  0  0  0  0  0  0  0
   -6.5267   -2.1354   -1.5137 H   0  0  0  0  0  0  0  0  0  0  0  0
   -4.3253   -2.2700    0.6169 H   0  0  0  0  0  0  0  0  0  0  0  0
   -5.1751   -3.6139   -0.1455 H   0  0  0  0  0  0  0  0  0  0  0  0
   -5.7787   -4.3861    2.1165 H   0  0  0  0  0  0  0  0  0  0  0  0
   -4.9872   -2.9837    2.8633 H   0  0  0  0  0  0  0  0  0  0  0  0
   -6.7002   -3.3315    3.1806 H   0  0  0  0  0  0  0  0  0  0  0  0
   -7.3426   -1.0915    2.4175 H   0  0  0  0  0  0  0  0  0  0  0  0
   -5.6429   -0.7107    2.1051 H   0  0  0  0  0  0  0  0  0  0  0  0
   -7.9505   -0.6257    0.0781 H   0  0  0  0  0  0  0  0  0  0  0  0
   -7.1756    0.7631    0.8214 H   0  0  0  0  0  0  0  0  0  0  0  0
   -3.3215   -0.6031   -0.4292 H   0  0  0  0  0  0  0  0  0  0  0  0
    1.2215   -1.3385   -1.7554 H   0  0  0  0  0  0  0  0  0  0  0  0
    3.6764   -1.1641   -1.5616 H   0  0  0  0  0  0  0  0  0  0  0  0
    5.0558   -2.5846    0.0733 H   0  0  0  0  0  0  0  0  0  0  0  0
    4.4370   -1.9284    1.6213 H   0  0  0  0  0  0  0  0  0  0  0  0
    6.0389   -2.6480    1.5444 H   0  0  0  0  0  0  0  0  0  0  0  0
    7.9113   -1.3535    1.0693 H   0  0  0  0  0  0  0  0  0  0  0  0
  1  2  1  0
  2  3  2  0
  3  4  1  0
  4  5  2  0
  5  6  1  0
  6  7  1  0
  7  8  2  0
  8  9  1  0
  9 10  1  0
 10 11  1  0
 11 12  2  0
 12 13  1  0
 13 14  1  0
 14 15  2  0
 14 16  1  0
 16 17  1  0
 17 18  1  0
 18 19  2  0
 19 20  1  0
 20 21  1  0
 21 22  1  0
 22 23  1  0
 22 24  2  0
 22 25  2  0
 20 26  2  0
 26 27  1  0
 27 28  1  0
 28 29  1  0
 29 30  1  0
 30 31  1  0
 30 32  1  0
 32 33  1  0
 26 34  1  0
 13 35  2  0
 35 36  1  0
  9 37  2  0
 37 38  1  0
 37 39  1  0
  5 40  1  0
 40  2  1  0
 39  6  2  0
 36 10  2  0
 34 17  2  0
 33 27  1  0
  1 41  1  0
  1 42  1  0
  1 43  1  0
  7 44  1  0
  8 45  1  0
 11 46  1  0
 12 47  1  0
 16 48  1  0
 18 49  1  0
 19 50  1  0
 23 51  1  0
 23 52  1  0
 23 53  1  0
 28 54  1  0
 28 55  1  0
 29 56  1  0
 29 57  1  0
 31 58  1  0
 31 59  1  0
 31 60  1  0
 32 61  1  0
 32 62  1  0
 33 63  1  0
 33 64  1  0
 34 65  1  0
 35 66  1  0
 36 67  1  0
 38 68  1  0
 38 69  1  0
 38 70  1  0
 39 71  1  0
M  END
$$$$
