
     RDKit          3D

 36 37  0  0  0  0  0  0  0  0999 V2000
   -3.9521    0.6826    3.2293 C   0  0  0  0  0  0  0  0  0  0  0  0
   -2.5460    0.9944    2.7536 C   0  0  0  0  0  0  0  0  0  0  0  0
   -2.2675    0.2801    1.5410 O   0  0  0  0  0  0  0  0  0  0  0  0
   -2.6057    0.9178    0.3975 C   0  0  0  0  0  0  0  0  0  0  0  0
   -3.2035    1.9727    0.2798 O   0  0  0  0  0  0  0  0  0  0  0  0
   -2.2451    0.0544   -0.7422 C   0  0  0  0  0  0  0  0  0  0  0  0
   -3.2634   -0.2208   -1.6674 C   0  0  0  0  0  0  0  0  0  0  0  0
   -3.0245   -1.0760   -2.7443 C   0  0  0  0  0  0  0  0  0  0  0  0
   -1.7696   -1.6610   -2.9049 C   0  0  0  0  0  0  0  0  0  0  0  0
   -0.7442   -1.3767   -2.0015 C   0  0  0  0  0  0  0  0  0  0  0  0
   -0.9773   -0.5059   -0.9260 C   0  0  0  0  0  0  0  0  0  0  0  0
    0.3753   -0.0687    0.1314 S   0  0  0  0  0  0  0  0  0  0  0  0
    0.5337   -1.1438    1.0843 O   0  0  0  0  0  0  0  0  0  0  0  0
    0.2328    1.3158    0.5223 O   0  0  0  0  0  0  0  0  0  0  0  0
    1.7007   -0.0786   -0.9619 N   0  0  0  0  0  0  0  0  0  0  0  0
    2.9912   -0.0664   -0.3096 C   0  0  0  0  0  0  0  0  0  0  0  0
    3.4727   -1.2400    0.2773 C   0  0  0  0  0  0  0  0  0  0  0  0
    4.7029   -1.2347    0.9364 C   0  0  0  0  0  0  0  0  0  0  0  0
    5.4431   -0.0585    1.0043 C   0  0  0  0  0  0  0  0  0  0  0  0
    6.6236   -0.0608    1.6360 F   0  0  0  0  0  0  0  0  0  0  0  0
    4.9823    1.1172    0.4246 C   0  0  0  0  0  0  0  0  0  0  0  0
    3.7535    1.1123   -0.2328 C   0  0  0  0  0  0  0  0  0  0  0  0
    3.2062    2.5708   -0.9791 Cl  0  0  0  0  0  0  0  0  0  0  0  0
   -4.0851   -0.3971    3.3544 H   0  0  0  0  0  0  0  0  0  0  0  0
   -4.6960    1.0122    2.4972 H   0  0  0  0  0  0  0  0  0  0  0  0
   -4.1576    1.1765    4.1831 H   0  0  0  0  0  0  0  0  0  0  0  0
   -1.8195    0.6554    3.4992 H   0  0  0  0  0  0  0  0  0  0  0  0
   -2.3971    2.0727    2.6242 H   0  0  0  0  0  0  0  0  0  0  0  0
   -4.2501    0.2231   -1.5420 H   0  0  0  0  0  0  0  0  0  0  0  0
   -3.8212   -1.2918   -3.4530 H   0  0  0  0  0  0  0  0  0  0  0  0
   -1.5886   -2.3355   -3.7394 H   0  0  0  0  0  0  0  0  0  0  0  0
    0.2301   -1.8396   -2.1458 H   0  0  0  0  0  0  0  0  0  0  0  0
    1.6049    0.7775   -1.5214 H   0  0  0  0  0  0  0  0  0  0  0  0
    2.8923   -2.1586    0.2335 H   0  0  0  0  0  0  0  0  0  0  0  0
    5.0848   -2.1386    1.4021 H   0  0  0  0  0  0  0  0  0  0  0  0
    5.5840    2.0176    0.4915 H   0  0  0  0  0  0  0  0  0  0  0  0
  1  2  1  0
  2  3  1  0
  3  4  1  0
  4  5  2  0
  4  6  1  0
  6  7  2  0
  7  8  1  0
  8  9  2  0
  9 10  1  0
 10 11  2  0
 11 12  1  0
 12 13  2  0
 12 14  2  0
 12 15  1  0
 15 16  1  0
 16 17  1  0
 17 18  2  0
 18 19  1  0
 19 20  1  0
 19 21  2  0
 21 22  1  0
 22 23  1  0
 11  6  1  0
 22 16  2  0
  1 24  1  0
  1 25  1  0
  1 26  1  0
  2 27  1  0
  2 28  1  0
  7 29  1  0
  8 30  1  0
  9 31  1  0
 10 32  1  0
 15 33  1  0
 17 34  1  0
 18 35  1  0
 21 36  1  0
M  END
$$$$
