
     RDKit          3D

 65 69  0  0  0  0  0  0  0  0999 V2000
  -12.1582   -1.3313    0.1959 C   0  0  0  0  0  0  0  0  0  0  0  0
  -11.0972   -0.3202    0.0641 C   0  0  0  0  0  0  0  0  0  0  0  0
  -11.1909    0.9824   -0.0902 N   0  0  0  0  0  0  0  0  0  0  0  0
   -9.8962    1.4566   -0.1547 N   0  0  0  0  0  0  0  0  0  0  0  0
   -9.1032    0.4090   -0.0368 C   0  0  0  0  0  0  0  0  0  0  0  0
   -7.6481    0.3305   -0.0305 C   0  0  0  0  0  0  0  0  0  0  0  0
   -6.8921    1.5056   -0.1000 C   0  0  0  0  0  0  0  0  0  0  0  0
   -5.4957    1.4583   -0.0811 C   0  0  0  0  0  0  0  0  0  0  0  0
   -4.8075    0.2348   -0.0003 C   0  0  0  0  0  0  0  0  0  0  0  0
   -3.3375    0.2495    0.0448 C   0  0  0  0  0  0  0  0  0  0  0  0
   -2.5884    0.6101   -1.0881 C   0  0  0  0  0  0  0  0  0  0  0  0
   -1.1910    0.6393   -1.0461 C   0  0  0  0  0  0  0  0  0  0  0  0
   -0.5242    0.3104    0.1390 C   0  0  0  0  0  0  0  0  0  0  0  0
    0.9605    0.3300    0.2248 C   0  0  0  0  0  0  0  0  0  0  0  0
    1.5133   -0.5590    0.8600 O   0  0  0  0  0  0  0  0  0  0  0  0
    1.5546    1.4122   -0.3990 N   0  0  0  0  0  0  0  0  0  0  0  0
    2.9364    1.6791   -0.5140 C   0  0  0  0  0  0  0  0  0  0  0  0
    3.3047    2.9193   -1.0350 C   0  0  0  0  0  0  0  0  0  0  0  0
    4.6508    3.2498   -1.1703 C   0  0  0  0  0  0  0  0  0  0  0  0
    5.6384    2.3325   -0.7945 C   0  0  0  0  0  0  0  0  0  0  0  0
    6.9501    2.7280   -0.9015 O   0  0  0  0  0  0  0  0  0  0  0  0
    5.3174    1.0544   -0.2871 C   0  0  0  0  0  0  0  0  0  0  0  0
    6.2722    0.1135    0.0862 N   0  0  0  0  0  0  0  0  0  0  0  0
    7.5822    0.0543   -0.5836 C   0  0  0  0  0  0  0  0  0  0  0  0
    8.1145   -1.3988   -0.6497 C   0  0  0  0  0  0  0  0  0  0  0  0
    8.2076   -2.1151    0.6413 N   0  0  0  0  0  0  0  0  0  0  0  0
    9.5578   -2.0664    1.1942 C   0  0  0  0  0  0  0  0  0  0  0  0
    7.2294   -1.5835    1.6172 C   0  0  0  0  0  0  0  0  0  0  0  0
    5.9437   -1.0113    0.9775 C   0  0  0  0  0  0  0  0  0  0  0  0
    3.9400    0.7700   -0.1543 C   0  0  0  0  0  0  0  0  0  0  0  0
   -1.2556   -0.0674    1.2689 C   0  0  0  0  0  0  0  0  0  0  0  0
   -2.6518   -0.0870    1.2228 C   0  0  0  0  0  0  0  0  0  0  0  0
   -5.5601   -0.9594    0.0411 C   0  0  0  0  0  0  0  0  0  0  0  0
   -4.9034   -2.3133    0.1189 C   0  0  0  0  0  0  0  0  0  0  0  0
   -6.9682   -0.8947    0.0419 C   0  0  0  0  0  0  0  0  0  0  0  0
   -9.8031   -0.7637    0.1064 O   0  0  0  0  0  0  0  0  0  0  0  0
  -12.0708   -1.8563    1.1519 H   0  0  0  0  0  0  0  0  0  0  0  0
  -13.1462   -0.8631    0.1518 H   0  0  0  0  0  0  0  0  0  0  0  0
  -12.0903   -2.0665   -0.6112 H   0  0  0  0  0  0  0  0  0  0  0  0
   -7.3871    2.4742   -0.1618 H   0  0  0  0  0  0  0  0  0  0  0  0
   -4.9409    2.3948   -0.1193 H   0  0  0  0  0  0  0  0  0  0  0  0
   -3.0978    0.8569   -2.0185 H   0  0  0  0  0  0  0  0  0  0  0  0
   -0.6379    0.8888   -1.9482 H   0  0  0  0  0  0  0  0  0  0  0  0
    0.9365    2.1406   -0.7310 H   0  0  0  0  0  0  0  0  0  0  0  0
    2.5551    3.6492   -1.3278 H   0  0  0  0  0  0  0  0  0  0  0  0
    4.9151    4.2263   -1.5647 H   0  0  0  0  0  0  0  0  0  0  0  0
    6.9764    3.6780   -1.0913 H   0  0  0  0  0  0  0  0  0  0  0  0
    7.5153    0.4146   -1.6166 H   0  0  0  0  0  0  0  0  0  0  0  0
    8.2992    0.6794   -0.0391 H   0  0  0  0  0  0  0  0  0  0  0  0
    7.4256   -1.9775   -1.2802 H   0  0  0  0  0  0  0  0  0  0  0  0
    9.0745   -1.4143   -1.1802 H   0  0  0  0  0  0  0  0  0  0  0  0
   10.2701   -2.5419    0.5102 H   0  0  0  0  0  0  0  0  0  0  0  0
    9.8948   -1.0409    1.3819 H   0  0  0  0  0  0  0  0  0  0  0  0
    9.6067   -2.6251    2.1353 H   0  0  0  0  0  0  0  0  0  0  0  0
    6.9579   -2.3867    2.3114 H   0  0  0  0  0  0  0  0  0  0  0  0
    7.6846   -0.7810    2.2142 H   0  0  0  0  0  0  0  0  0  0  0  0
    5.4217   -1.7968    0.4180 H   0  0  0  0  0  0  0  0  0  0  0  0
    5.2911   -0.6759    1.7924 H   0  0  0  0  0  0  0  0  0  0  0  0
    3.6501   -0.2076    0.2120 H   0  0  0  0  0  0  0  0  0  0  0  0
   -0.7396   -0.3401    2.1877 H   0  0  0  0  0  0  0  0  0  0  0  0
   -3.2078   -0.3675    2.1161 H   0  0  0  0  0  0  0  0  0  0  0  0
   -5.5973   -3.1056   -0.1804 H   0  0  0  0  0  0  0  0  0  0  0  0
   -4.0459   -2.3771   -0.5589 H   0  0  0  0  0  0  0  0  0  0  0  0
   -4.5769   -2.5154    1.1431 H   0  0  0  0  0  0  0  0  0  0  0  0
   -7.5378   -1.8222    0.0940 H   0  0  0  0  0  0  0  0  0  0  0  0
  1  2  1  0
  2  3  2  0
  3  4  1  0
  4  5  2  0
  5  6  1  0
  6  7  1  0
  7  8  2  0
  8  9  1  0
  9 10  1  0
 10 11  1  0
 11 12  2  0
 12 13  1  0
 13 14  1  0
 14 15  2  0
 14 16  1  0
 16 17  1  0
 17 18  1  0
 18 19  2  0
 19 20  1  0
 20 21  1  0
 20 22  2  0
 22 23  1  0
 23 24  1  0
 24 25  1  0
 25 26  1  0
 26 27  1  0
 26 28  1  0
 28 29  1  0
 22 30  1  0
 13 31  2  0
 31 32  1  0
  9 33  2  0
 33 34  1  0
 33 35  1  0
  5 36  1  0
 36  2  1  0
 35  6  2  0
 32 10  2  0
 30 17  2  0
 29 23  1  0
  1 37  1  0
  1 38  1  0
  1 39  1  0
  7 40  1  0
  8 41  1  0
 11 42  1  0
 12 43  1  0
 16 44  1  0
 18 45  1  0
 19 46  1  0
 21 47  1  0
 24 48  1  0
 24 49  1  0
 25 50  1  0
 25 51  1  0
 27 52  1  0
 27 53  1  0
 27 54  1  0
 28 55  1  0
 28 56  1  0
 29 57  1  0
 29 58  1  0
 30 59  1  0
 31 60  1  0
 32 61  1  0
 34 62  1  0
 34 63  1  0
 34 64  1  0
 35 65  1  0
M  END
$$$$
