
     RDKit          3D

 40 42  0  0  0  0  0  0  0  0999 V2000
   -5.8778   -1.0112    0.1547 C   0  0  0  0  0  0  0  0  0  0  0  0
   -4.6145   -0.2054    0.0701 C   0  0  0  0  0  0  0  0  0  0  0  0
   -4.6638    1.1785   -0.1328 C   0  0  0  0  0  0  0  0  0  0  0  0
   -3.4857    1.9264   -0.2312 C   0  0  0  0  0  0  0  0  0  0  0  0
   -3.5434    3.4056   -0.4729 C   0  0  0  0  0  0  0  0  0  0  0  0
   -2.2512    1.2663   -0.1601 C   0  0  0  0  0  0  0  0  0  0  0  0
   -2.1831   -0.1201    0.0281 C   0  0  0  0  0  0  0  0  0  0  0  0
   -0.9018   -0.6966    0.0865 N   0  0  0  0  0  0  0  0  0  0  0  0
   -0.5649   -2.0246    0.2679 C   0  0  0  0  0  0  0  0  0  0  0  0
   -1.3228   -2.9741    0.4205 O   0  0  0  0  0  0  0  0  0  0  0  0
    0.9089   -2.2525    0.2691 C   0  0  0  0  0  0  0  0  0  0  0  0
    1.4211   -3.5217    0.4778 C   0  0  0  0  0  0  0  0  0  0  0  0
    2.7544   -3.7629    0.4880 N   0  0  0  0  0  0  0  0  0  0  0  0
    3.5419   -2.6758    0.2812 C   0  0  0  0  0  0  0  0  0  0  0  0
    3.0436   -1.3865    0.0744 C   0  0  0  0  0  0  0  0  0  0  0  0
    3.9034   -0.2092   -0.1470 C   0  0  0  0  0  0  0  0  0  0  0  0
    5.1490   -0.0635    0.4931 C   0  0  0  0  0  0  0  0  0  0  0  0
    5.9522    1.0620    0.2720 C   0  0  0  0  0  0  0  0  0  0  0  0
    5.5210    2.0634   -0.5925 C   0  0  0  0  0  0  0  0  0  0  0  0
    6.5073    3.4455   -0.8633 Cl  0  0  0  0  0  0  0  0  0  0  0  0
    4.2932    1.9507   -1.2355 C   0  0  0  0  0  0  0  0  0  0  0  0
    3.4930    0.8251   -1.0111 C   0  0  0  0  0  0  0  0  0  0  0  0
    1.7025   -1.1589    0.0599 N   0  0  0  0  0  0  0  0  0  0  0  0
   -3.3685   -0.8477    0.1403 C   0  0  0  0  0  0  0  0  0  0  0  0
   -6.7285   -0.3841    0.4437 H   0  0  0  0  0  0  0  0  0  0  0  0
   -5.7829   -1.7991    0.9101 H   0  0  0  0  0  0  0  0  0  0  0  0
   -6.0946   -1.4701   -0.8156 H   0  0  0  0  0  0  0  0  0  0  0  0
   -5.6279    1.6775   -0.2122 H   0  0  0  0  0  0  0  0  0  0  0  0
   -2.6803    3.9085   -0.0242 H   0  0  0  0  0  0  0  0  0  0  0  0
   -4.4419    3.8408   -0.0227 H   0  0  0  0  0  0  0  0  0  0  0  0
   -3.5525    3.6089   -1.5481 H   0  0  0  0  0  0  0  0  0  0  0  0
   -1.3372    1.8477   -0.2554 H   0  0  0  0  0  0  0  0  0  0  0  0
   -0.1041   -0.0721   -0.0097 H   0  0  0  0  0  0  0  0  0  0  0  0
    0.7792   -4.3809    0.6427 H   0  0  0  0  0  0  0  0  0  0  0  0
    4.6068   -2.8857    0.2735 H   0  0  0  0  0  0  0  0  0  0  0  0
    5.5082   -0.8162    1.1929 H   0  0  0  0  0  0  0  0  0  0  0  0
    6.9078    1.1511    0.7828 H   0  0  0  0  0  0  0  0  0  0  0  0
    3.9498    2.7304   -1.9105 H   0  0  0  0  0  0  0  0  0  0  0  0
    2.5364    0.7552   -1.5277 H   0  0  0  0  0  0  0  0  0  0  0  0
   -3.3522   -1.9245    0.2798 H   0  0  0  0  0  0  0  0  0  0  0  0
  1  2  1  0
  2  3  1  0
  3  4  2  0
  4  5  1  0
  4  6  1  0
  6  7  2  0
  7  8  1  0
  8  9  1  0
  9 10  2  0
  9 11  1  0
 11 12  1  0
 12 13  2  0
 13 14  1  0
 14 15  2  0
 15 16  1  0
 16 17  1  0
 17 18  2  0
 18 19  1  0
 19 20  1  0
 19 21  2  0
 21 22  1  0
 15 23  1  0
  7 24  1  0
 24  2  2  0
 23 11  2  0
 22 16  2  0
  1 25  1  0
  1 26  1  0
  1 27  1  0
  3 28  1  0
  5 29  1  0
  5 30  1  0
  5 31  1  0
  6 32  1  0
  8 33  1  0
 12 34  1  0
 14 35  1  0
 17 36  1  0
 18 37  1  0
 21 38  1  0
 22 39  1  0
 24 40  1  0
M  END
$$$$
