
     RDKit          3D

 40 42  0  0  0  0  0  0  0  0999 V2000
   -5.8788   -1.0111    0.1848 C   0  0  0  0  0  0  0  0  0  0  0  0
   -4.6110   -0.2095    0.1370 C   0  0  0  0  0  0  0  0  0  0  0  0
   -4.6526    1.1878    0.2068 C   0  0  0  0  0  0  0  0  0  0  0  0
   -3.4714    1.9370    0.2019 C   0  0  0  0  0  0  0  0  0  0  0  0
   -3.5227    3.4358    0.2355 C   0  0  0  0  0  0  0  0  0  0  0  0
   -2.2418    1.2704    0.1103 C   0  0  0  0  0  0  0  0  0  0  0  0
   -2.1806   -0.1280    0.0551 C   0  0  0  0  0  0  0  0  0  0  0  0
   -0.9032   -0.7108   -0.0206 N   0  0  0  0  0  0  0  0  0  0  0  0
   -0.5726   -2.0516   -0.0757 C   0  0  0  0  0  0  0  0  0  0  0  0
   -1.3340   -3.0105   -0.0649 O   0  0  0  0  0  0  0  0  0  0  0  0
    0.8989   -2.2819   -0.1531 C   0  0  0  0  0  0  0  0  0  0  0  0
    1.4061   -3.5701   -0.1727 C   0  0  0  0  0  0  0  0  0  0  0  0
    2.7372   -3.8144   -0.2386 N   0  0  0  0  0  0  0  0  0  0  0  0
    3.5278   -2.7108   -0.2825 C   0  0  0  0  0  0  0  0  0  0  0  0
    3.0346   -1.4034   -0.2584 C   0  0  0  0  0  0  0  0  0  0  0  0
    3.8977   -0.2089   -0.3041 C   0  0  0  0  0  0  0  0  0  0  0  0
    5.1583   -0.1747    0.3220 C   0  0  0  0  0  0  0  0  0  0  0  0
    5.9650    0.9686    0.2687 C   0  0  0  0  0  0  0  0  0  0  0  0
    5.5223    2.0993   -0.4105 C   0  0  0  0  0  0  0  0  0  0  0  0
    6.5133    3.5029   -0.4756 Cl  0  0  0  0  0  0  0  0  0  0  0  0
    4.2793    2.0982   -1.0338 C   0  0  0  0  0  0  0  0  0  0  0  0
    3.4756    0.9544   -0.9773 C   0  0  0  0  0  0  0  0  0  0  0  0
    1.6955   -1.1716   -0.1984 N   0  0  0  0  0  0  0  0  0  0  0  0
   -3.3687   -0.8597    0.0767 C   0  0  0  0  0  0  0  0  0  0  0  0
   -6.7154   -0.4467   -0.2403 H   0  0  0  0  0  0  0  0  0  0  0  0
   -6.1180   -1.2708    1.2206 H   0  0  0  0  0  0  0  0  0  0  0  0
   -5.7801   -1.9324   -0.3989 H   0  0  0  0  0  0  0  0  0  0  0  0
   -5.6137    1.6953    0.2659 H   0  0  0  0  0  0  0  0  0  0  0  0
   -2.6387    3.8457    0.7353 H   0  0  0  0  0  0  0  0  0  0  0  0
   -4.3997    3.7849    0.7908 H   0  0  0  0  0  0  0  0  0  0  0  0
   -3.5687    3.8314   -0.7837 H   0  0  0  0  0  0  0  0  0  0  0  0
   -1.3258    1.8561    0.0885 H   0  0  0  0  0  0  0  0  0  0  0  0
   -0.1031   -0.0821   -0.0317 H   0  0  0  0  0  0  0  0  0  0  0  0
    0.7618   -4.4423   -0.1360 H   0  0  0  0  0  0  0  0  0  0  0  0
    4.5905   -2.9202   -0.3537 H   0  0  0  0  0  0  0  0  0  0  0  0
    5.5271   -1.0331    0.8808 H   0  0  0  0  0  0  0  0  0  0  0  0
    6.9327    0.9693    0.7644 H   0  0  0  0  0  0  0  0  0  0  0  0
    3.9270    2.9789   -1.5645 H   0  0  0  0  0  0  0  0  0  0  0  0
    2.5068    0.9737   -1.4754 H   0  0  0  0  0  0  0  0  0  0  0  0
   -3.3568   -1.9449    0.0424 H   0  0  0  0  0  0  0  0  0  0  0  0
  1  2  1  0
  2  3  1  0
  3  4  2  0
  4  5  1  0
  4  6  1  0
  6  7  2  0
  7  8  1  0
  8  9  1  0
  9 10  2  0
  9 11  1  0
 11 12  1  0
 12 13  2  0
 13 14  1  0
 14 15  2  0
 15 16  1  0
 16 17  1  0
 17 18  2  0
 18 19  1  0
 19 20  1  0
 19 21  2  0
 21 22  1  0
 15 23  1  0
  7 24  1  0
 24  2  2  0
 23 11  2  0
 22 16  2  0
  1 25  1  0
  1 26  1  0
  1 27  1  0
  3 28  1  0
  5 29  1  0
  5 30  1  0
  5 31  1  0
  6 32  1  0
  8 33  1  0
 12 34  1  0
 14 35  1  0
 17 36  1  0
 18 37  1  0
 21 38  1  0
 22 39  1  0
 24 40  1  0
M  END
$$$$
