
     RDKit          3D

 41 43  0  0  0  0  0  0  0  0999 V2000
   -5.4862   -2.6596    1.7845 N   0  0  0  0  0  0  0  0  0  0  0  0
   -4.1491   -2.3543    1.8252 C   0  0  0  0  0  0  0  0  0  0  0  0
   -3.3816   -3.1093    2.4159 O   0  0  0  0  0  0  0  0  0  0  0  0
   -3.7415   -1.1256    1.1210 C   0  0  0  0  0  0  0  0  0  0  0  0
   -4.5546   -0.0989    0.5911 C   0  0  0  0  0  0  0  0  0  0  0  0
   -3.6952    0.8685    0.0916 C   0  0  0  0  0  0  0  0  0  0  0  0
   -4.0445    2.1831   -0.3686 C   0  0  0  0  0  0  0  0  0  0  0  0
   -5.2322    2.2651   -1.0389 N   0  0  0  0  0  0  0  0  0  0  0  0
   -3.3823    3.1984   -0.1936 O   0  0  0  0  0  0  0  0  0  0  0  0
   -2.4185    0.3354    0.2249 N   0  0  0  0  0  0  0  0  0  0  0  0
   -1.1588    0.7654   -0.3028 C   0  0  0  0  0  0  0  0  0  0  0  0
   -1.0552    1.7103   -1.3260 C   0  0  0  0  0  0  0  0  0  0  0  0
    0.1996    2.0793   -1.8156 C   0  0  0  0  0  0  0  0  0  0  0  0
    1.3595    1.4999   -1.2997 C   0  0  0  0  0  0  0  0  0  0  0  0
    1.2952    0.5301   -0.2892 C   0  0  0  0  0  0  0  0  0  0  0  0
    2.5184   -0.0885    0.2577 C   0  0  0  0  0  0  0  0  0  0  0  0
    2.7108   -0.2002    1.6483 C   0  0  0  0  0  0  0  0  0  0  0  0
    3.8598   -0.7971    2.1807 C   0  0  0  0  0  0  0  0  0  0  0  0
    4.8505   -1.2870    1.3337 C   0  0  0  0  0  0  0  0  0  0  0  0
    4.6945   -1.1597   -0.0434 C   0  0  0  0  0  0  0  0  0  0  0  0
    5.6569   -1.6791   -0.8657 O   0  0  0  0  0  0  0  0  0  0  0  0
    6.5288   -0.6546   -1.3312 C   0  0  0  0  0  0  0  0  0  0  0  0
    7.4633   -1.2142   -2.1320 F   0  0  0  0  0  0  0  0  0  0  0  0
    7.1681   -0.0644   -0.2964 F   0  0  0  0  0  0  0  0  0  0  0  0
    5.8735    0.2862   -2.0420 F   0  0  0  0  0  0  0  0  0  0  0  0
    3.5327   -0.5900   -0.5733 C   0  0  0  0  0  0  0  0  0  0  0  0
    3.3945   -0.5432   -1.9087 F   0  0  0  0  0  0  0  0  0  0  0  0
    0.0213    0.1713    0.1918 C   0  0  0  0  0  0  0  0  0  0  0  0
   -2.4510   -0.8265    0.9331 N   0  0  0  0  0  0  0  0  0  0  0  0
   -5.7348   -3.5618    2.1687 H   0  0  0  0  0  0  0  0  0  0  0  0
   -6.1248   -2.2256    1.1377 H   0  0  0  0  0  0  0  0  0  0  0  0
   -5.6302   -0.0165    0.6567 H   0  0  0  0  0  0  0  0  0  0  0  0
   -5.4618    3.1648   -1.4406 H   0  0  0  0  0  0  0  0  0  0  0  0
   -5.7251    1.4506   -1.3723 H   0  0  0  0  0  0  0  0  0  0  0  0
   -1.9191    2.1665   -1.7946 H   0  0  0  0  0  0  0  0  0  0  0  0
    0.2746    2.8199   -2.6086 H   0  0  0  0  0  0  0  0  0  0  0  0
    2.3221    1.8128   -1.7008 H   0  0  0  0  0  0  0  0  0  0  0  0
    1.9572    0.1820    2.3361 H   0  0  0  0  0  0  0  0  0  0  0  0
    3.9746   -0.8808    3.2593 H   0  0  0  0  0  0  0  0  0  0  0  0
    5.7363   -1.7603    1.7487 H   0  0  0  0  0  0  0  0  0  0  0  0
   -0.0460   -0.5922    0.9678 H   0  0  0  0  0  0  0  0  0  0  0  0
  1  2  1  0
  2  3  2  0
  2  4  1  0
  4  5  1  0
  5  6  2  0
  6  7  1  0
  7  8  1  0
  7  9  2  0
  6 10  1  0
 10 11  1  0
 11 12  2  0
 12 13  1  0
 13 14  2  0
 14 15  1  0
 15 16  1  0
 16 17  2  0
 17 18  1  0
 18 19  2  0
 19 20  1  0
 20 21  1  0
 21 22  1  0
 22 23  1  0
 22 24  1  0
 22 25  1  0
 20 26  2  0
 26 27  1  0
 15 28  2  0
 10 29  1  0
 29  4  2  0
 28 11  1  0
 26 16  1  0
  1 30  1  0
  1 31  1  0
  5 32  1  0
  8 33  1  0
  8 34  1  0
 12 35  1  0
 13 36  1  0
 14 37  1  0
 17 38  1  0
 18 39  1  0
 19 40  1  0
 28 41  1  0
M  END
$$$$
