
     RDKit          3D

 40 42  0  0  0  0  0  0  0  0999 V2000
    1.7626    2.6696    1.6460 O   0  0  0  0  0  0  0  0  0  0  0  0
    1.3140    2.0507    0.6713 N   0  0  0  0  0  0  0  0  0  0  0  0
    0.5154    2.4909   -0.1679 O   0  0  0  0  0  0  0  0  0  0  0  0
    1.7543    0.6933    0.5000 C   0  0  0  0  0  0  0  0  0  0  0  0
    0.9849   -0.3326    1.0628 C   0  0  0  0  0  0  0  0  0  0  0  0
   -0.1291    0.0308    1.7642 O   0  0  0  0  0  0  0  0  0  0  0  0
   -1.1021   -0.9798    2.0366 C   0  0  0  0  0  0  0  0  0  0  0  0
   -2.3830   -0.3112    2.5389 C   0  0  0  0  0  0  0  0  0  0  0  0
   -2.9771    0.7098    1.5599 C   0  0  0  0  0  0  0  0  0  0  0  0
   -3.3674    0.1194    0.2271 C   0  0  0  0  0  0  0  0  0  0  0  0
   -4.4111   -0.8110    0.1332 C   0  0  0  0  0  0  0  0  0  0  0  0
   -4.7590   -1.3620   -1.1013 C   0  0  0  0  0  0  0  0  0  0  0  0
   -4.0702   -0.9863   -2.2531 C   0  0  0  0  0  0  0  0  0  0  0  0
   -3.0358   -0.0566   -2.1723 C   0  0  0  0  0  0  0  0  0  0  0  0
   -2.6867    0.4954   -0.9389 C   0  0  0  0  0  0  0  0  0  0  0  0
    1.4468   -1.6286    0.8750 C   0  0  0  0  0  0  0  0  0  0  0  0
    0.8077   -2.6832    1.3981 F   0  0  0  0  0  0  0  0  0  0  0  0
    2.6074   -1.8779    0.1471 C   0  0  0  0  0  0  0  0  0  0  0  0
    3.3464   -0.8471   -0.4103 C   0  0  0  0  0  0  0  0  0  0  0  0
    4.4556   -1.1663   -1.1010 N   0  0  0  0  0  0  0  0  0  0  0  0
    5.1475   -0.1418   -1.6249 C   0  0  0  0  0  0  0  0  0  0  0  0
    6.2741   -0.4618   -2.3249 O   0  0  0  0  0  0  0  0  0  0  0  0
    4.7407    1.1685   -1.4628 C   0  0  0  0  0  0  0  0  0  0  0  0
    5.4448    2.2020   -1.9930 O   0  0  0  0  0  0  0  0  0  0  0  0
    3.6410    1.5202   -0.7818 N   0  0  0  0  0  0  0  0  0  0  0  0
    2.9234    0.4982   -0.2395 C   0  0  0  0  0  0  0  0  0  0  0  0
   -0.7256   -1.6413    2.8251 H   0  0  0  0  0  0  0  0  0  0  0  0
   -1.3184   -1.5689    1.1377 H   0  0  0  0  0  0  0  0  0  0  0  0
   -2.1594    0.2190    3.4732 H   0  0  0  0  0  0  0  0  0  0  0  0
   -3.1204   -1.0863    2.7781 H   0  0  0  0  0  0  0  0  0  0  0  0
   -3.8713    1.1600    2.0101 H   0  0  0  0  0  0  0  0  0  0  0  0
   -2.2717    1.5375    1.4148 H   0  0  0  0  0  0  0  0  0  0  0  0
   -4.9638   -1.1093    1.0210 H   0  0  0  0  0  0  0  0  0  0  0  0
   -5.5711   -2.0815   -1.1651 H   0  0  0  0  0  0  0  0  0  0  0  0
   -4.3444   -1.4125   -3.2144 H   0  0  0  0  0  0  0  0  0  0  0  0
   -2.5036    0.2449   -3.0707 H   0  0  0  0  0  0  0  0  0  0  0  0
   -1.8817    1.2265   -0.8952 H   0  0  0  0  0  0  0  0  0  0  0  0
    2.9397   -2.9058    0.0192 H   0  0  0  0  0  0  0  0  0  0  0  0
    6.6416    0.3906   -2.6223 H   0  0  0  0  0  0  0  0  0  0  0  0
    4.9053    2.9611   -1.7000 H   0  0  0  0  0  0  0  0  0  0  0  0
  1  2  2  0
  2  3  1  0
  2  4  1  0
  4  5  1  0
  5  6  1  0
  6  7  1  0
  7  8  1  0
  8  9  1  0
  9 10  1  0
 10 11  2  0
 11 12  1  0
 12 13  2  0
 13 14  1  0
 14 15  2  0
  5 16  2  0
 16 17  1  0
 16 18  1  0
 18 19  2  0
 19 20  1  0
 20 21  2  0
 21 22  1  0
 21 23  1  0
 23 24  1  0
 23 25  2  0
 25 26  1  0
 26  4  2  0
 15 10  1  0
 26 19  1  0
  7 27  1  0
  7 28  1  0
  8 29  1  0
  8 30  1  0
  9 31  1  0
  9 32  1  0
 11 33  1  0
 12 34  1  0
 13 35  1  0
 14 36  1  0
 15 37  1  0
 18 38  1  0
 22 39  1  0
 24 40  1  0
M  CHG  2   2   1   3  -1
M  END
$$$$
