
     RDKit          3D

 36 37  0  0  0  0  0  0  0  0999 V2000
   -3.9466    0.6894    3.2353 C   0  0  0  0  0  0  0  0  0  0  0  0
   -2.5393    0.9957    2.7598 C   0  0  0  0  0  0  0  0  0  0  0  0
   -2.2652    0.2845    1.5444 O   0  0  0  0  0  0  0  0  0  0  0  0
   -2.6014    0.9279    0.4035 C   0  0  0  0  0  0  0  0  0  0  0  0
   -3.1946    1.9858    0.2901 O   0  0  0  0  0  0  0  0  0  0  0  0
   -2.2457    0.0671   -0.7397 C   0  0  0  0  0  0  0  0  0  0  0  0
   -3.2660   -0.2003   -1.6649 C   0  0  0  0  0  0  0  0  0  0  0  0
   -3.0318   -1.0526   -2.7451 C   0  0  0  0  0  0  0  0  0  0  0  0
   -1.7797   -1.6426   -2.9090 C   0  0  0  0  0  0  0  0  0  0  0  0
   -0.7522   -1.3661   -2.0055 C   0  0  0  0  0  0  0  0  0  0  0  0
   -0.9805   -0.4981   -0.9266 C   0  0  0  0  0  0  0  0  0  0  0  0
    0.3750   -0.0706    0.1310 S   0  0  0  0  0  0  0  0  0  0  0  0
    0.5298   -1.1498    1.0797 O   0  0  0  0  0  0  0  0  0  0  0  0
    0.2387    1.3131    0.5271 O   0  0  0  0  0  0  0  0  0  0  0  0
    1.6992   -0.0819   -0.9636 N   0  0  0  0  0  0  0  0  0  0  0  0
    2.9904   -0.0774   -0.3126 C   0  0  0  0  0  0  0  0  0  0  0  0
    3.4675   -1.2551    0.2697 C   0  0  0  0  0  0  0  0  0  0  0  0
    4.6985   -1.2572    0.9275 C   0  0  0  0  0  0  0  0  0  0  0  0
    5.4437   -0.0844    0.9985 C   0  0  0  0  0  0  0  0  0  0  0  0
    6.6250   -0.0938    1.6289 F   0  0  0  0  0  0  0  0  0  0  0  0
    4.9873    1.0952    0.4233 C   0  0  0  0  0  0  0  0  0  0  0  0
    3.7578    1.0978   -0.2328 C   0  0  0  0  0  0  0  0  0  0  0  0
    3.2158    2.5611   -0.9736 Cl  0  0  0  0  0  0  0  0  0  0  0  0
   -4.0852   -0.3899    3.3565 H   0  0  0  0  0  0  0  0  0  0  0  0
   -4.6893    1.0256    2.5049 H   0  0  0  0  0  0  0  0  0  0  0  0
   -4.1489    1.1810    4.1910 H   0  0  0  0  0  0  0  0  0  0  0  0
   -1.8140    0.6503    3.5037 H   0  0  0  0  0  0  0  0  0  0  0  0
   -2.3848    2.0737    2.6342 H   0  0  0  0  0  0  0  0  0  0  0  0
   -4.2507    0.2475   -1.5370 H   0  0  0  0  0  0  0  0  0  0  0  0
   -3.8301   -1.2624   -3.4540 H   0  0  0  0  0  0  0  0  0  0  0  0
   -1.6023   -2.3148   -3.7461 H   0  0  0  0  0  0  0  0  0  0  0  0
    0.2199   -1.8326   -2.1524 H   0  0  0  0  0  0  0  0  0  0  0  0
    1.6064    0.7765   -1.5200 H   0  0  0  0  0  0  0  0  0  0  0  0
    2.8834   -2.1711    0.2233 H   0  0  0  0  0  0  0  0  0  0  0  0
    5.0771   -2.1642    1.3897 H   0  0  0  0  0  0  0  0  0  0  0  0
    5.5929    1.9929    0.4925 H   0  0  0  0  0  0  0  0  0  0  0  0
  1  2  1  0
  2  3  1  0
  3  4  1  0
  4  5  2  0
  4  6  1  0
  6  7  2  0
  7  8  1  0
  8  9  2  0
  9 10  1  0
 10 11  2  0
 11 12  1  0
 12 13  2  0
 12 14  2  0
 12 15  1  0
 15 16  1  0
 16 17  1  0
 17 18  2  0
 18 19  1  0
 19 20  1  0
 19 21  2  0
 21 22  1  0
 22 23  1  0
 11  6  1  0
 22 16  2  0
  1 24  1  0
  1 25  1  0
  1 26  1  0
  2 27  1  0
  2 28  1  0
  7 29  1  0
  8 30  1  0
  9 31  1  0
 10 32  1  0
 15 33  1  0
 17 34  1  0
 18 35  1  0
 21 36  1  0
M  END
$$$$
